0:0
     RDKit          3D

 44 45  0  0  0  0  0  0  0  0999 V2000
  139.8170  154.2500  132.9820 C   0  0  0  0  0  0  0  0  0  0  0  0
  141.2260  154.0260  133.3230 N   0  0  0  0  0  0  0  0  0  0  0  0
  141.8390  152.7110  133.0920 C   0  0  0  0  0  0  0  0  0  0  0  0
  141.3970  151.7500  134.1480 C   0  0  0  0  0  0  0  0  0  0  0  0
  141.0150  150.5930  133.8310 O   0  0  0  0  0  0  0  0  0  0  0  0
  141.3610  152.1460  135.4790 O   0  0  0  0  0  0  0  0  0  0  0  0
  142.0140  155.1090  133.8570 C   0  0  0  0  0  0  0  0  0  0  0  0
  143.1650  155.3430  133.3970 O   0  0  0  0  0  0  0  0  0  0  0  0
  141.5090  155.9280  134.9200 N   0  0  0  0  0  0  0  0  0  0  0  0
  140.9610  157.1700  134.8320 C   0  0  0  0  0  0  0  0  0  0  0  0
  140.6840  157.9050  133.5800 C   0  0  0  0  0  0  0  0  0  0  0  0
  141.4750  157.6940  132.4130 N   0  0  0  0  0  0  0  0  0  0  0  0
  139.7220  158.7180  133.5320 O   0  0  0  0  0  0  0  0  0  0  0  0
  140.6510  157.6550  136.1030 C   0  0  0  0  0  0  0  0  0  0  0  0
  141.0360  156.6610  136.9760 C   0  0  0  0  0  0  0  0  0  0  0  0
  140.9590  156.6020  138.3650 C   0  0  0  0  0  0  0  0  0  0  0  0
  141.4360  155.4430  139.0020 C   0  0  0  0  0  0  0  0  0  0  0  0
  141.9900  154.3790  138.2460 C   0  0  0  0  0  0  0  0  0  0  0  0
  142.4490  153.1200  138.9360 C   0  0  0  0  0  0  0  0  0  0  0  0
  141.9020  151.8520  138.2560 C   0  0  0  0  0  0  0  0  0  0  0  0
  140.3650  151.7560  138.2270 C   0  0  0  0  0  0  0  0  0  0  0  0
  139.8620  150.4010  137.7180 C   0  0  0  0  0  0  0  0  0  0  0  0
  140.5970  150.0060  136.5920 O   0  0  0  0  0  0  0  0  0  0  0  0
  142.0600  154.4800  136.8390 C   0  0  0  0  0  0  0  0  0  0  0  0
  141.5570  155.6340  136.2350 C   0  0  0  0  0  0  0  0  0  0  0  0
  139.2267  154.3438  133.9054 H   0  0  0  0  0  0  0  0  0  0  0  0
  139.7249  155.1741  132.3924 H   0  0  0  0  0  0  0  0  0  0  0  0
  139.4428  153.4001  132.3924 H   0  0  0  0  0  0  0  0  0  0  0  0
  141.5326  152.3343  132.1050 H   0  0  0  0  0  0  0  0  0  0  0  0
  142.9338  152.8107  133.1290 H   0  0  0  0  0  0  0  0  0  0  0  0
  141.9270  156.7700  132.2310 H   0  0  0  0  0  0  0  0  0  0  0  0
  140.1961  158.6245  136.3545 H   0  0  0  0  0  0  0  0  0  0  0  0
  140.5382  157.4361  138.9457 H   0  0  0  0  0  0  0  0  0  0  0  0
  141.3789  155.3608  140.0974 H   0  0  0  0  0  0  0  0  0  0  0  0
  143.5483  153.0861  138.9168 H   0  0  0  0  0  0  0  0  0  0  0  0
  142.0672  153.1417  139.9674 H   0  0  0  0  0  0  0  0  0  0  0  0
  142.2671  151.8336  137.2185 H   0  0  0  0  0  0  0  0  0  0  0  0
  142.2578  150.9987  138.8520 H   0  0  0  0  0  0  0  0  0  0  0  0
  139.9843  151.9111  139.2473 H   0  0  0  0  0  0  0  0  0  0  0  0
  139.9991  152.5263  137.5322 H   0  0  0  0  0  0  0  0  0  0  0  0
  139.9792  149.6481  138.5114 H   0  0  0  0  0  0  0  0  0  0  0  0
  138.8012  150.4917  137.4416 H   0  0  0  0  0  0  0  0  0  0  0  0
  140.6180  150.7850  135.9770 H   0  0  0  0  0  0  0  0  0  0  0  0
  142.4987  153.6717  136.2356 H   0  0  0  0  0  0  0  0  0  0  0  0
  1  2  1  0
  2  3  1  0
  3  4  1  0
  4  5  2  0
  4  6  1  0
  2  7  1  0
  7  8  2  0
  7  9  1  0
  9 10  1  0
 10 11  1  0
 11 12  1  0
 11 13  2  0
 10 14  2  0
 14 15  1  0
 15 16  2  0
 16 17  1  0
 17 18  2  0
 18 19  1  0
 19 20  1  0
 20 21  1  0
 21 22  1  0
 22 23  1  0
 18 24  1  0
 24 25  2  0
 25  9  1  0
 25 15  1  0
  1 26  1  0
  1 27  1  0
  1 28  1  0
  3 29  1  0
  3 30  1  0
 12 31  1  0
 14 32  1  0
 16 33  1  0
 17 34  1  0
 19 35  1  0
 19 36  1  0
 20 37  1  0
 20 38  1  0
 21 39  1  0
 21 40  1  0
 22 41  1  0
 22 42  1  0
 23 43  1  0
 24 44  1  0
M  CHG  2   6  -1  12  -1
M  END
>  <UniqueID>  (1) 
1

>  <SMILES>  (1) 
CN(CC(=O)[O-])C(=O)n1c(C([NH-])=O)cc2ccc(CCCCO)cc21

>  <Energy>  (1) 
72.85451743073591

>  <Genealogy>  (1) 
CN(CC(=O)[O-])C(=O)n1c(C([NH-])=O)cc2ccc(CCCCO)cc21 (protonated)
CN(CC(=O)[O-])C(=O)n1c(C([NH-])=O)cc2ccc(CCCCO)cc21 (3D coordinates assigned)
CN(CC(=O)[O-])C(=O)n1c(C([NH-])=O)cc2ccc(CCCCO)cc21 (optimized conformer: 72.85451743073591 kcal/mol)

>  <smiles>  (1) 
CN(CC(=O)O)C(=O)n1c(C(N)=O)cc2ccc(CCCCO)cc21

>  <score_type>  (1) 
oracle

>  <origin>  (1) 
adg

>  <m_score__min__energy>  (1) 
-6.71

>  <m_primary>  (1) 
energy

$$$$
1:0
     RDKit          3D

 48 49  0  0  0  0  0  0  0  0999 V2000
  143.2210  151.9110  133.1340 C   0  0  0  0  0  0  0  0  0  0  0  0
  142.3170  152.8600  133.8110 N   0  0  1  0  0  0  0  0  0  0  0  0
  141.1450  153.2140  132.9730 C   0  0  0  0  0  0  0  0  0  0  0  0
  140.4900  154.5410  133.3860 C   0  0  0  0  0  0  0  0  0  0  0  0
  141.3880  155.3070  134.1800 O   0  0  0  0  0  0  0  0  0  0  0  0
  142.4010  156.1010  133.6330 C   0  0  0  0  0  0  0  0  0  0  0  0
  143.3400  155.5720  132.9790 O   0  0  0  0  0  0  0  0  0  0  0  0
  142.3490  157.5280  133.7930 N   0  0  0  0  0  0  0  0  0  0  0  0
  141.2400  158.3150  133.8840 C   0  0  0  0  0  0  0  0  0  0  0  0
  139.8460  157.8400  134.0080 C   0  0  0  0  0  0  0  0  0  0  0  0
  139.1770  157.2990  132.8710 N   0  0  0  0  0  0  0  0  0  0  0  0
  139.2230  157.9450  135.0960 O   0  0  0  0  0  0  0  0  0  0  0  0
  141.5990  159.6610  133.9240 C   0  0  0  0  0  0  0  0  0  0  0  0
  142.9730  159.6740  133.8600 C   0  0  0  0  0  0  0  0  0  0  0  0
  143.8560  160.7490  133.8390 C   0  0  0  0  0  0  0  0  0  0  0  0
  145.2290  160.4720  133.7330 C   0  0  0  0  0  0  0  0  0  0  0  0
  145.6960  159.1340  133.6590 C   0  0  0  0  0  0  0  0  0  0  0  0
  147.1660  158.8440  133.4850 C   0  0  0  0  0  0  0  0  0  0  0  0
  147.5700  157.8620  134.3720 F   0  0  0  0  0  0  0  0  0  0  0  0
  147.3930  158.4070  132.1930 F   0  0  0  0  0  0  0  0  0  0  0  0
  147.9250  159.9770  133.7170 F   0  0  0  0  0  0  0  0  0  0  0  0
  144.7630  158.0700  133.6570 C   0  0  0  0  0  0  0  0  0  0  0  0
  143.4030  158.3750  133.7840 C   0  0  0  0  0  0  0  0  0  0  0  0
  141.8530  152.2730  135.0590 C   0  0  0  0  0  0  0  0  0  0  0  0
  141.2230  151.2240  135.0360 O   0  0  0  0  0  0  0  0  0  0  0  0
  142.1050  152.9150  136.4080 C   0  0  0  0  0  0  0  0  0  0  0  0
  142.7790  154.1550  136.3050 O   0  0  0  0  0  0  0  0  0  0  0  0
  144.0230  154.0990  136.9720 C   0  0  0  0  0  0  0  0  0  0  0  0
  145.0860  153.7480  135.9860 C   0  0  0  0  0  0  0  0  0  0  0  0
  144.8500  153.8220  134.7510 O   0  0  0  0  0  0  0  0  0  0  0  0
  146.3470  153.3630  136.4260 O   0  0  0  0  0  0  0  0  0  0  0  0
  143.7740  151.3305  133.8872 H   0  0  0  0  0  0  0  0  0  0  0  0
  142.6312  151.2279  132.5050 H   0  0  0  0  0  0  0  0  0  0  0  0
  143.9319  152.4669  132.5050 H   0  0  0  0  0  0  0  0  0  0  0  0
  142.8590  153.7330  134.0010 H   0  0  0  0  0  0  0  0  0  0  0  0
  141.4744  153.2965  131.9267 H   0  0  0  0  0  0  0  0  0  0  0  0
  140.3941  152.4212  133.1061 H   0  0  0  0  0  0  0  0  0  0  0  0
  140.2256  155.1118  132.4836 H   0  0  0  0  0  0  0  0  0  0  0  0
  139.5853  154.3266  133.9738 H   0  0  0  0  0  0  0  0  0  0  0  0
  138.3610  156.6580  132.9850 H   0  0  0  0  0  0  0  0  0  0  0  0
  140.9264  160.5287  133.9922 H   0  0  0  0  0  0  0  0  0  0  0  0
  143.4900  161.7843  133.9035 H   0  0  0  0  0  0  0  0  0  0  0  0
  145.9506  161.3019  133.7071 H   0  0  0  0  0  0  0  0  0  0  0  0
  145.0989  157.0273  133.5579 H   0  0  0  0  0  0  0  0  0  0  0  0
  141.1378  153.0803  136.9053 H   0  0  0  0  0  0  0  0  0  0  0  0
  142.7479  152.2342  136.9852 H   0  0  0  0  0  0  0  0  0  0  0  0
  144.2452  155.0782  137.4213 H   0  0  0  0  0  0  0  0  0  0  0  0
  143.9858  153.3383  137.7657 H   0  0  0  0  0  0  0  0  0  0  0  0
  1  2  1  0
  2  3  1  0
  3  4  1  0
  4  5  1  0
  5  6  1  0
  6  7  2  0
  6  8  1  0
  8  9  1  0
  9 10  1  0
 10 11  1  0
 10 12  2  0
  9 13  2  0
 13 14  1  0
 14 15  2  0
 15 16  1  0
 16 17  2  0
 17 18  1  0
 18 19  1  0
 18 20  1  0
 18 21  1  0
 17 22  1  0
 22 23  2  0
  2 24  1  0
 24 25  2  0
 24 26  1  0
 26 27  1  0
 27 28  1  0
 28 29  1  0
 29 30  2  0
 29 31  1  0
 23  8  1  0
 23 14  1  0
  1 32  1  0
  1 33  1  0
  1 34  1  0
  2 35  1  1
  3 36  1  0
  3 37  1  0
  4 38  1  0
  4 39  1  0
 11 40  1  0
 13 41  1  0
 15 42  1  0
 16 43  1  0
 22 44  1  0
 26 45  1  0
 26 46  1  0
 28 47  1  0
 28 48  1  0
M  CHG  3   2   1  11  -1  31  -1
M  END
>  <UniqueID>  (2) 
2

>  <SMILES>  (2) 
C[N@@H+](CCOC(=O)n1c(C([NH-])=O)cc2ccc(C(F)(F)F)cc21)C(=O)COCC(=O)[O-]

>  <Energy>  (2) 
86.63752676067502

>  <Genealogy>  (2) 
C[NH+](CCOC(=O)n1c(C([NH-])=O)cc2ccc(C(F)(F)F)cc21)C(=O)COCC(=O)[O-] (protonated)
C[N@@H+](CCOC(=O)n1c(C([NH-])=O)cc2ccc(C(F)(F)F)cc21)C(=O)COCC(=O)[O-] (chirality)
C[N@@H+](CCOC(=O)n1c(C([NH-])=O)cc2ccc(C(F)(F)F)cc21)C(=O)COCC(=O)[O-] (3D coordinates assigned)
C[N@@H+](CCOC(=O)n1c(C([NH-])=O)cc2ccc(C(F)(F)F)cc21)C(=O)COCC(=O)[O-] (optimized conformer: 86.63752676067502 kcal/mol)

>  <smiles>  (2) 
CN(CCOC(=O)n1c(C(N)=O)cc2ccc(C(F)(F)F)cc21)C(=O)COCC(=O)O

>  <score_type>  (2) 
oracle

>  <origin>  (2) 
adg

>  <m_score__min__energy>  (2) 
-5.1799999999999997

>  <m_primary>  (2) 
energy

$$$$
2:0
     RDKit          3D

 45 46  0  0  0  0  0  0  0  0999 V2000
  150.3150  160.0540  129.5810 C   0  0  0  0  0  0  0  0  0  0  0  0
  149.7620  160.1790  130.9380 N   0  0  0  0  0  0  0  0  0  0  0  0
  148.8320  161.3200  131.0000 C   0  0  0  0  0  0  0  0  0  0  0  0
  149.1060  158.9230  131.3750 C   0  0  0  0  0  0  0  0  0  0  0  0
  148.8090  158.9820  132.8760 C   0  0  0  0  0  0  0  0  0  0  0  0
  147.3380  159.1680  133.1400 C   0  0  0  0  0  0  0  0  0  0  0  0
  146.8260  160.4620  133.4110 C   0  0  0  0  0  0  0  0  0  0  0  0
  145.4630  160.6460  133.6960 C   0  0  0  0  0  0  0  0  0  0  0  0
  144.6430  159.5210  133.7210 C   0  0  0  0  0  0  0  0  0  0  0  0
  143.2910  159.4170  133.9510 C   0  0  0  0  0  0  0  0  0  0  0  0
  143.0050  158.0570  133.8550 C   0  0  0  0  0  0  0  0  0  0  0  0
  141.6670  157.4880  134.1180 C   0  0  0  0  0  0  0  0  0  0  0  0
  141.2000  156.3490  133.3990 N   0  0  0  0  0  0  0  0  0  0  0  0
  140.9460  157.9830  135.0250 O   0  0  0  0  0  0  0  0  0  0  0  0
  144.1330  157.3480  133.5680 N   0  0  0  0  0  0  0  0  0  0  0  0
  144.2370  155.9420  133.2980 C   0  0  0  0  0  0  0  0  0  0  0  0
  143.7030  155.4620  132.2620 O   0  0  0  0  0  0  0  0  0  0  0  0
  144.8810  155.1110  134.2280 O   0  0  0  0  0  0  0  0  0  0  0  0
  145.7180  154.0200  133.9390 C   0  0  0  0  0  0  0  0  0  0  0  0
  145.2320  152.7990  132.9450 S   0  0  0  0  0  0  0  0  0  0  0  0
  147.0720  154.0460  134.4320 N   0  0  0  0  0  0  0  0  0  0  0  0
  148.1670  154.1910  133.4700 C   0  0  0  0  0  0  0  0  0  0  0  0
  147.3630  154.1470  135.8410 C   0  0  0  0  0  0  0  0  0  0  0  0
  147.9900  155.1390  136.3010 O   0  0  0  0  0  0  0  0  0  0  0  0
  146.9810  153.1310  136.7110 O   0  0  0  0  0  0  0  0  0  0  0  0
  145.1290  158.2590  133.4900 C   0  0  0  0  0  0  0  0  0  0  0  0
  146.4770  158.0500  133.1800 C   0  0  0  0  0  0  0  0  0  0  0  0
  151.3863  159.8119  129.6425 H   0  0  0  0  0  0  0  0  0  0  0  0
  149.7882  159.2523  129.0428 H   0  0  0  0  0  0  0  0  0  0  0  0
  150.1842  161.0044  129.0428 H   0  0  0  0  0  0  0  0  0  0  0  0
  148.6281  161.5701  132.0516 H   0  0  0  0  0  0  0  0  0  0  0  0
  149.2830  162.1883  130.4973 H   0  0  0  0  0  0  0  0  0  0  0  0
  147.8906  161.0535  130.4973 H   0  0  0  0  0  0  0  0  0  0  0  0
  148.1640  158.7926  130.8221 H   0  0  0  0  0  0  0  0  0  0  0  0
  149.7776  158.0756  131.1729 H   0  0  0  0  0  0  0  0  0  0  0  0
  149.1402  158.0428  133.3432 H   0  0  0  0  0  0  0  0  0  0  0  0
  149.3477  159.8417  133.3012 H   0  0  0  0  0  0  0  0  0  0  0  0
  147.5022  161.3296  133.3979 H   0  0  0  0  0  0  0  0  0  0  0  0
  145.0557  161.6485  133.8935 H   0  0  0  0  0  0  0  0  0  0  0  0
  142.5858  160.2336  134.1651 H   0  0  0  0  0  0  0  0  0  0  0  0
  141.7230  155.9840  132.5730 H   0  0  0  0  0  0  0  0  0  0  0  0
  149.1163  154.3167  134.0113 H   0  0  0  0  0  0  0  0  0  0  0  0
  148.2214  153.2922  132.8382 H   0  0  0  0  0  0  0  0  0  0  0  0
  147.9856  155.0730  132.8382 H   0  0  0  0  0  0  0  0  0  0  0  0
  146.8570  157.0388  132.9724 H   0  0  0  0  0  0  0  0  0  0  0  0
  1  2  1  0
  2  3  1  0
  2  4  1  0
  4  5  1  0
  5  6  1  0
  6  7  2  0
  7  8  1  0
  8  9  2  0
  9 10  1  0
 10 11  2  0
 11 12  1  0
 12 13  1  0
 12 14  2  0
 11 15  1  0
 15 16  1  0
 16 17  2  0
 16 18  1  0
 18 19  1  0
 19 20  2  0
 19 21  1  0
 21 22  1  0
 21 23  1  0
 23 24  2  0
 23 25  1  0
 15 26  1  0
 26 27  2  0
 27  6  1  0
 26  9  1  0
  1 28  1  0
  1 29  1  0
  1 30  1  0
  3 31  1  0
  3 32  1  0
  3 33  1  0
  4 34  1  0
  4 35  1  0
  5 36  1  0
  5 37  1  0
  7 38  1  0
  8 39  1  0
 10 40  1  0
 13 41  1  0
 22 42  1  0
 22 43  1  0
 22 44  1  0
 27 45  1  0
M  CHG  2  13  -1  25  -1
M  END
>  <UniqueID>  (3) 
3

>  <SMILES>  (3) 
CN(C)CCc1ccc2cc(C([NH-])=O)n(C(=O)OC(=S)N(C)C(=O)[O-])c2c1

>  <Energy>  (3) 
89.79967545262633

>  <Genealogy>  (3) 
CN(C)CCc1ccc2cc(C([NH-])=O)n(C(=O)OC(=S)N(C)C(=O)[O-])c2c1 (protonated)
CN(C)CCc1ccc2cc(C([NH-])=O)n(C(=O)OC(=S)N(C)C(=O)[O-])c2c1 (3D coordinates assigned)
CN(C)CCc1ccc2cc(C([NH-])=O)n(C(=O)OC(=S)N(C)C(=O)[O-])c2c1 (optimized conformer: 89.79967545262633 kcal/mol)

>  <smiles>  (3) 
CN(C)CCc1ccc2cc(C(N)=O)n(C(=O)OC(=S)N(C)C(=O)O)c2c1

>  <score_type>  (3) 
oracle

>  <origin>  (3) 
adg

>  <m_score__min__energy>  (3) 
-7.6799999999999997

>  <m_primary>  (3) 
energy

$$$$
4:0
     RDKit          3D

 63 64  0  0  0  0  0  0  0  0999 V2000
  139.2040  149.5560  131.4980 C   0  0  0  0  0  0  0  0  0  0  0  0
  140.0150  149.9230  132.4940 C   0  0  0  0  0  0  0  0  0  0  0  0
  141.3760  150.4910  132.2210 C   0  0  0  0  0  0  0  0  0  0  0  0
  142.0900  150.6860  133.4400 O   0  0  0  0  0  0  0  0  0  0  0  0
  141.6930  151.5950  134.4270 C   0  0  0  0  0  0  0  0  0  0  0  0
  141.0360  151.2050  135.4320 O   0  0  0  0  0  0  0  0  0  0  0  0
  142.0370  152.9410  134.2880 O   0  0  0  0  0  0  0  0  0  0  0  0
  143.3630  153.4210  134.4980 C   0  0  0  0  0  0  0  0  0  0  0  0
  144.0070  153.6450  133.2480 O   0  0  0  0  0  0  0  0  0  0  0  0
  143.9710  154.8700  132.5690 C   0  0  0  0  0  0  0  0  0  0  0  0
  144.3090  154.9240  131.3530 O   0  0  0  0  0  0  0  0  0  0  0  0
  143.5750  156.0730  133.2590 N   0  0  0  0  0  0  0  0  0  0  0  0
  142.2740  156.6460  133.0120 C   0  0  0  0  0  0  0  0  0  0  0  0
  142.1530  157.6100  132.2070 O   0  0  0  0  0  0  0  0  0  0  0  0
  141.1410  156.1220  133.6480 O   0  0  0  0  0  0  0  0  0  0  0  0
  139.9060  155.8670  132.9780 C   0  0  1  0  0  0  0  0  0  0  0  0
  139.6070  154.3710  132.9880 C   0  0  0  0  0  0  0  0  0  0  0  0
  138.8560  156.5560  133.6500 O   0  0  0  0  0  0  0  0  0  0  0  0
  138.9990  157.8530  134.1520 C   0  0  0  0  0  0  0  0  0  0  0  0
  139.3380  158.0420  135.3530 O   0  0  0  0  0  0  0  0  0  0  0  0
  138.7490  158.9380  133.3060 O   0  0  0  0  0  0  0  0  0  0  0  0
  139.6860  159.4100  132.3380 C   0  0  0  0  0  0  0  0  0  0  0  0
  139.0570  159.4910  130.9760 C   0  0  0  0  0  0  0  0  0  0  0  0
  137.8550  160.0390  130.7930 C   0  0  0  0  0  0  0  0  0  0  0  0
  144.5070  156.7450  134.1330 C   0  0  0  0  0  0  0  0  0  0  0  0
  144.9490  156.1590  135.1570 O   0  0  0  0  0  0  0  0  0  0  0  0
  144.9410  158.0870  133.8570 N   0  0  0  0  0  0  0  0  0  0  0  0
  144.2470  159.2460  134.0380 C   0  0  0  0  0  0  0  0  0  0  0  0
  142.8340  159.3560  134.4570 C   0  0  0  0  0  0  0  0  0  0  0  0
  142.2430  158.3900  135.3240 N   0  0  0  0  0  0  0  0  0  0  0  0
  142.1270  160.3030  134.0180 O   0  0  0  0  0  0  0  0  0  0  0  0
  145.0310  160.3410  133.6780 C   0  0  0  0  0  0  0  0  0  0  0  0
  146.2330  159.8110  133.2660 C   0  0  0  0  0  0  0  0  0  0  0  0
  147.3850  160.4450  132.8030 C   0  0  0  0  0  0  0  0  0  0  0  0
  148.4840  159.6410  132.4580 C   0  0  0  0  0  0  0  0  0  0  0  0
  148.4120  158.2300  132.5710 C   0  0  0  0  0  0  0  0  0  0  0  0
  149.6040  157.3890  132.2280 C   0  0  0  0  0  0  0  0  0  0  0  0
  147.2310  157.6240  133.0550 C   0  0  0  0  0  0  0  0  0  0  0  0
  146.1530  158.4490  133.3870 C   0  0  0  0  0  0  0  0  0  0  0  0
  138.2100  149.1418  131.7224 H   0  0  0  0  0  0  0  0  0  0  0  0
  139.5302  149.6680  130.4535 H   0  0  0  0  0  0  0  0  0  0  0  0
  139.6781  149.8064  133.5346 H   0  0  0  0  0  0  0  0  0  0  0  0
  141.9370  149.7946  131.5804 H   0  0  0  0  0  0  0  0  0  0  0  0
  141.2615  151.4619  131.7167 H   0  0  0  0  0  0  0  0  0  0  0  0
  143.3230  154.3653  135.0608 H   0  0  0  0  0  0  0  0  0  0  0  0
  143.9316  152.6699  135.0660 H   0  0  0  0  0  0  0  0  0  0  0  0
  139.9810  156.2165  131.9377 H   0  0  0  0  0  0  0  0  0  0  0  0
  139.5365  154.0181  134.0275 H   0  0  0  0  0  0  0  0  0  0  0  0
  138.6537  154.1842  132.4719 H   0  0  0  0  0  0  0  0  0  0  0  0
  140.4152  153.8321  132.4719 H   0  0  0  0  0  0  0  0  0  0  0  0
  140.0353  160.4104  132.6332 H   0  0  0  0  0  0  0  0  0  0  0  0
  140.5295  158.7054  132.2936 H   0  0  0  0  0  0  0  0  0  0  0  0
  139.6011  159.0886  130.1088 H   0  0  0  0  0  0  0  0  0  0  0  0
  137.4191  160.0845  129.7841 H   0  0  0  0  0  0  0  0  0  0  0  0
  137.2994  160.4455  131.6510 H   0  0  0  0  0  0  0  0  0  0  0  0
  141.4580  157.7830  134.9980 H   0  0  0  0  0  0  0  0  0  0  0  0
  144.7490  161.4036  133.7152 H   0  0  0  0  0  0  0  0  0  0  0  0
  147.4319  161.5401  132.7107 H   0  0  0  0  0  0  0  0  0  0  0  0
  149.4102  160.1114  132.0963 H   0  0  0  0  0  0  0  0  0  0  0  0
  150.0896  157.0464  133.1536 H   0  0  0  0  0  0  0  0  0  0  0  0
  149.2809  156.5178  131.6393 H   0  0  0  0  0  0  0  0  0  0  0  0
  150.3164  157.9855  131.6393 H   0  0  0  0  0  0  0  0  0  0  0  0
  147.1619  156.5319  133.1675 H   0  0  0  0  0  0  0  0  0  0  0  0
  1  2  2  0
  2  3  1  0
  3  4  1  0
  4  5  1  0
  5  6  2  0
  5  7  1  0
  7  8  1  0
  8  9  1  0
  9 10  1  0
 10 11  2  0
 10 12  1  0
 12 13  1  0
 13 14  2  0
 13 15  1  0
 15 16  1  0
 16 17  1  0
 16 18  1  0
 18 19  1  0
 19 20  2  0
 19 21  1  0
 21 22  1  0
 22 23  1  0
 23 24  2  0
 12 25  1  0
 25 26  2  0
 25 27  1  0
 27 28  1  0
 28 29  1  0
 29 30  1  0
 29 31  2  0
 28 32  2  0
 32 33  1  0
 33 34  2  0
 34 35  1  0
 35 36  2  0
 36 37  1  0
 36 38  1  0
 38 39  2  0
 39 27  1  0
 39 33  1  0
  1 40  1  0
  1 41  1  0
  2 42  1  0
  3 43  1  0
  3 44  1  0
  8 45  1  0
  8 46  1  0
 16 47  1  6
 17 48  1  0
 17 49  1  0
 17 50  1  0
 22 51  1  0
 22 52  1  0
 23 53  1  0
 24 54  1  0
 24 55  1  0
 30 56  1  0
 32 57  1  0
 34 58  1  0
 35 59  1  0
 37 60  1  0
 37 61  1  0
 37 62  1  0
 38 63  1  0
M  CHG  1  30  -1
M  END
>  <UniqueID>  (4) 
4

>  <SMILES>  (4) 
C=CCOC(=O)OCOC(=O)N(C(=O)O[C@@H](C)OC(=O)OCC=C)C(=O)n1c(C([NH-])=O)cc2ccc(C)cc21

>  <Energy>  (4) 
90.00589787091275

>  <Genealogy>  (4) 
C=CCOC(=O)OCOC(=O)N(C(=O)OC(C)OC(=O)OCC=C)C(=O)n1c(C([NH-])=O)cc2ccc(C)cc21 (protonated)
C=CCOC(=O)OCOC(=O)N(C(=O)O[C@@H](C)OC(=O)OCC=C)C(=O)n1c(C([NH-])=O)cc2ccc(C)cc21 (chirality)
C=CCOC(=O)OCOC(=O)N(C(=O)O[C@@H](C)OC(=O)OCC=C)C(=O)n1c(C([NH-])=O)cc2ccc(C)cc21 (3D coordinates assigned)
C=CCOC(=O)OCOC(=O)N(C(=O)O[C@@H](C)OC(=O)OCC=C)C(=O)n1c(C([NH-])=O)cc2ccc(C)cc21 (optimized conformer: 90.00589787091275 kcal/mol)

>  <smiles>  (4) 
C=CCOC(=O)OCOC(=O)N(C(=O)OC(C)OC(=O)OCC=C)C(=O)n1c(C(N)=O)cc2ccc(C)cc21

>  <score_type>  (4) 
oracle

>  <origin>  (4) 
adg

>  <m_score__min__energy>  (4) 
-7.3200000000000003

>  <m_primary>  (4) 
energy

$$$$
5:0
     RDKit          3D

 40 41  0  0  0  0  0  0  0  0999 V2000
  141.0630  159.6060  134.2720 N   0  0  0  0  0  0  0  0  0  0  0  0
  140.9010  159.4390  135.6790 C   0  0  0  0  0  0  0  0  0  0  0  0
  140.6300  160.4400  136.3930 O   0  0  0  0  0  0  0  0  0  0  0  0
  141.0830  158.1160  136.3130 C   0  0  0  0  0  0  0  0  0  0  0  0
  141.0440  157.9080  137.6900 C   0  0  0  0  0  0  0  0  0  0  0  0
  141.3270  156.5720  137.8670 C   0  0  0  0  0  0  0  0  0  0  0  0
  141.4060  155.8170  139.0350 C   0  0  0  0  0  0  0  0  0  0  0  0
  141.6950  154.4470  138.9140 C   0  0  0  0  0  0  0  0  0  0  0  0
  141.9030  153.8620  137.6390 C   0  0  0  0  0  0  0  0  0  0  0  0
  142.1930  152.3920  137.5190 C   0  0  0  0  0  0  0  0  0  0  0  0
  140.9180  151.6130  137.5180 C   0  0  0  0  0  0  0  0  0  0  0  0
  140.1270  151.6940  138.4950 O   0  0  0  0  0  0  0  0  0  0  0  0
  140.6160  150.7720  136.4540 O   0  0  0  0  0  0  0  0  0  0  0  0
  141.8010  154.6590  136.4760 C   0  0  0  0  0  0  0  0  0  0  0  0
  141.5220  156.0200  136.6290 C   0  0  0  0  0  0  0  0  0  0  0  0
  141.3680  156.9520  135.6640 N   0  0  0  0  0  0  0  0  0  0  0  0
  141.4110  156.7110  134.2490 C   0  0  0  0  0  0  0  0  0  0  0  0
  142.3800  157.1500  133.5730 O   0  0  0  0  0  0  0  0  0  0  0  0
  140.3700  155.9100  133.5890 C   0  0  0  0  0  0  0  0  0  0  0  0
  140.4840  154.6560  133.5320 O   0  0  0  0  0  0  0  0  0  0  0  0
  139.2680  156.5510  133.0150 O   0  0  0  0  0  0  0  0  0  0  0  0
  138.4560  157.4790  133.7300 C   0  0  0  0  0  0  0  0  0  0  0  0
  138.7360  158.8100  133.3060 O   0  0  0  0  0  0  0  0  0  0  0  0
  138.6590  159.2130  131.9680 C   0  0  0  0  0  0  0  0  0  0  0  0
  137.5540  159.5530  131.4630 O   0  0  0  0  0  0  0  0  0  0  0  0
  139.9050  159.2610  131.1350 C   0  0  0  0  0  0  0  0  0  0  0  0
  141.0240  158.6060  131.8160 N   0  0  0  0  0  0  0  0  0  0  0  0
  140.9070  158.8100  133.6150 H   0  0  0  0  0  0  0  0  0  0  0  0
  140.8320  158.6533  138.4707 H   0  0  0  0  0  0  0  0  0  0  0  0
  141.2472  156.2785  140.0208 H   0  0  0  0  0  0  0  0  0  0  0  0
  141.7605  153.8224  139.8171 H   0  0  0  0  0  0  0  0  0  0  0  0
  142.7345  152.2039  136.5801 H   0  0  0  0  0  0  0  0  0  0  0  0
  142.8061  152.0759  138.3759 H   0  0  0  0  0  0  0  0  0  0  0  0
  141.9376  154.2196  135.4768 H   0  0  0  0  0  0  0  0  0  0  0  0
  137.3959  157.2537  133.5419 H   0  0  0  0  0  0  0  0  0  0  0  0
  138.6748  157.3922  134.8045 H   0  0  0  0  0  0  0  0  0  0  0  0
  139.7175  158.7492  130.1795 H   0  0  0  0  0  0  0  0  0  0  0  0
  140.1698  160.3151  130.9655 H   0  0  0  0  0  0  0  0  0  0  0  0
  141.6840  159.3390  132.1700 H   0  0  0  0  0  0  0  0  0  0  0  0
  140.6580  158.0790  132.6470 H   0  0  0  0  0  0  0  0  0  0  0  0
  1  2  1  0
  2  3  2  0
  2  4  1  0
  4  5  2  0
  5  6  1  0
  6  7  2  0
  7  8  1  0
  8  9  2  0
  9 10  1  0
 10 11  1  0
 11 12  2  0
 11 13  1  0
  9 14  1  0
 14 15  2  0
 15 16  1  0
 16 17  1  0
 17 18  2  0
 17 19  1  0
 19 20  2  0
 19 21  1  0
 21 22  1  0
 22 23  1  0
 23 24  1  0
 24 25  2  0
 24 26  1  0
 26 27  1  0
 16  4  1  0
 15  6  1  0
  1 28  1  0
  5 29  1  0
  7 30  1  0
  8 31  1  0
 10 32  1  0
 10 33  1  0
 14 34  1  0
 22 35  1  0
 22 36  1  0
 26 37  1  0
 26 38  1  0
 27 39  1  0
 27 40  1  0
M  CHG  2   1  -1  13  -1
M  END
>  <UniqueID>  (5) 
5

>  <SMILES>  (5) 
[NH-]C(=O)c1cc2ccc(CC(=O)[O-])cc2n1C(=O)C(=O)OCOC(=O)CN

>  <Energy>  (5) 
72.66141416942445

>  <Genealogy>  (5) 
[NH-]C(=O)c1cc2ccc(CC(=O)[O-])cc2n1C(=O)C(=O)OCOC(=O)CN (protonated)
[NH-]C(=O)c1cc2ccc(CC(=O)[O-])cc2n1C(=O)C(=O)OCOC(=O)CN (3D coordinates assigned)
[NH-]C(=O)c1cc2ccc(CC(=O)[O-])cc2n1C(=O)C(=O)OCOC(=O)CN (optimized conformer: 72.66141416942445 kcal/mol)

>  <smiles>  (5) 
NCC(=O)OCOC(=O)C(=O)n1c(C(N)=O)cc2ccc(CC(=O)O)cc21

>  <score_type>  (5) 
oracle

>  <origin>  (5) 
adg

>  <m_score__min__energy>  (5) 
-6.1100000000000003

>  <m_primary>  (5) 
energy

$$$$
6:0
     RDKit          3D

 53 55  0  0  0  0  0  0  0  0999 V2000
  145.0930  153.1820  132.6560 C   0  0  0  0  0  0  0  0  0  0  0  0
  146.1760  154.0220  133.3710 C   0  0  0  0  0  0  0  0  0  0  0  0
  147.5220  153.2620  133.2560 C   0  0  0  0  0  0  0  0  0  0  0  0
  146.3020  155.3720  132.6200 C   0  0  0  0  0  0  0  0  0  0  0  0
  145.7760  154.1900  134.8850 C   0  0  2  0  0  0  0  0  0  0  0  0
  144.9710  155.3950  135.1400 N   0  0  0  0  0  0  0  0  0  0  0  0
  143.7320  155.7720  134.5190 C   0  0  0  0  0  0  0  0  0  0  0  0
  142.9640  154.8930  134.0410 O   0  0  0  0  0  0  0  0  0  0  0  0
  143.3630  157.1600  134.4350 N   0  0  0  0  0  0  0  0  0  0  0  0
  142.1550  157.7230  134.7380 C   0  0  0  0  0  0  0  0  0  0  0  0
  140.9170  156.9940  135.0970 C   0  0  0  0  0  0  0  0  0  0  0  0
  140.3180  156.1000  134.1570 N   0  0  0  0  0  0  0  0  0  0  0  0
  140.4080  157.1100  136.2440 O   0  0  0  0  0  0  0  0  0  0  0  0
  142.1990  159.1020  134.5510 C   0  0  0  0  0  0  0  0  0  0  0  0
  143.4750  159.3700  134.1120 C   0  0  0  0  0  0  0  0  0  0  0  0
  144.0630  160.5820  133.7600 C   0  0  0  0  0  0  0  0  0  0  0  0
  145.4030  160.5670  133.3370 C   0  0  0  0  0  0  0  0  0  0  0  0
  146.1350  159.3520  133.2920 C   0  0  0  0  0  0  0  0  0  0  0  0
  147.5060  159.3430  132.8480 N   0  0  0  0  0  0  0  0  0  0  0  0
  148.0580  160.4420  132.0450 C   0  0  0  0  0  0  0  0  0  0  0  0
  148.6740  159.8940  130.7410 C   0  0  0  0  0  0  0  0  0  0  0  0
  149.2090  158.5210  130.8620 N   0  0  0  0  0  0  0  0  0  0  0  0
  149.6050  158.1820  132.2370 C   0  0  0  0  0  0  0  0  0  0  0  0
  148.3820  158.2050  133.1720 C   0  0  0  0  0  0  0  0  0  0  0  0
  145.5000  158.1430  133.6580 C   0  0  0  0  0  0  0  0  0  0  0  0
  144.1570  158.1830  134.0490 C   0  0  0  0  0  0  0  0  0  0  0  0
  146.9100  154.0700  135.8850 C   0  0  0  0  0  0  0  0  0  0  0  0
  147.8170  154.9530  135.9090 O   0  0  0  0  0  0  0  0  0  0  0  0
  146.9870  152.9980  136.7710 O   0  0  0  0  0  0  0  0  0  0  0  0
  144.4571  152.6888  133.4059 H   0  0  0  0  0  0  0  0  0  0  0  0
  144.4752  153.8395  132.0267 H   0  0  0  0  0  0  0  0  0  0  0  0
  145.5761  152.4201  132.0267 H   0  0  0  0  0  0  0  0  0  0  0  0
  147.9074  153.0444  134.2630 H   0  0  0  0  0  0  0  0  0  0  0  0
  147.3653  152.3190  132.7117 H   0  0  0  0  0  0  0  0  0  0  0  0
  148.2485  153.8832  132.7117 H   0  0  0  0  0  0  0  0  0  0  0  0
  146.3785  156.1917  133.3496 H   0  0  0  0  0  0  0  0  0  0  0  0
  147.2027  155.3577  131.9887 H   0  0  0  0  0  0  0  0  0  0  0  0
  145.4142  155.5247  131.9887 H   0  0  0  0  0  0  0  0  0  0  0  0
  145.1430  153.3084  135.0642 H   0  0  0  0  0  0  0  0  0  0  0  0
  140.8490  155.2820  133.7770 H   0  0  0  0  0  0  0  0  0  0  0  0
  141.3861  159.8239  134.7186 H   0  0  0  0  0  0  0  0  0  0  0  0
  143.4957  161.5230  133.8115 H   0  0  0  0  0  0  0  0  0  0  0  0
  145.8897  161.5069  133.0376 H   0  0  0  0  0  0  0  0  0  0  0  0
  147.2535  161.1501  131.7970 H   0  0  0  0  0  0  0  0  0  0  0  0
  148.8418  160.9510  132.6252 H   0  0  0  0  0  0  0  0  0  0  0  0
  147.8961  159.8953  129.9632 H   0  0  0  0  0  0  0  0  0  0  0  0
  149.5232  160.5466  130.4901 H   0  0  0  0  0  0  0  0  0  0  0  0
  148.4710  157.8420  130.5570 H   0  0  0  0  0  0  0  0  0  0  0  0
  150.0500  157.1761  132.2479 H   0  0  0  0  0  0  0  0  0  0  0  0
  150.3362  158.9242  132.5897 H   0  0  0  0  0  0  0  0  0  0  0  0
  147.8176  157.2684  133.0527 H   0  0  0  0  0  0  0  0  0  0  0  0
  148.7301  158.3086  134.2103 H   0  0  0  0  0  0  0  0  0  0  0  0
  146.0502  157.1908  133.6359 H   0  0  0  0  0  0  0  0  0  0  0  0
  1  2  1  0
  2  3  1  0
  2  4  1  0
  2  5  1  0
  5  6  1  0
  6  7  1  0
  7  8  2  0
  7  9  1  0
  9 10  1  0
 10 11  1  0
 11 12  1  0
 11 13  2  0
 10 14  2  0
 14 15  1  0
 15 16  2  0
 16 17  1  0
 17 18  2  0
 18 19  1  0
 19 20  1  0
 20 21  1  0
 21 22  1  0
 22 23  1  0
 23 24  1  0
 18 25  1  0
 25 26  2  0
  5 27  1  0
 27 28  2  0
 27 29  1  0
 26  9  1  0
 26 15  1  0
 24 19  1  0
  1 30  1  0
  1 31  1  0
  1 32  1  0
  3 33  1  0
  3 34  1  0
  3 35  1  0
  4 36  1  0
  4 37  1  0
  4 38  1  0
  5 39  1  1
 12 40  1  0
 14 41  1  0
 16 42  1  0
 17 43  1  0
 20 44  1  0
 20 45  1  0
 21 46  1  0
 21 47  1  0
 22 48  1  0
 23 49  1  0
 23 50  1  0
 24 51  1  0
 24 52  1  0
 25 53  1  0
M  CHG  3   6  -1  12  -1  29  -1
M  END
>  <UniqueID>  (6) 
6

>  <SMILES>  (6) 
CC(C)(C)[C@H]([N-]C(=O)n1c(C([NH-])=O)cc2ccc(N3CCNCC3)cc21)C(=O)[O-]

>  <Energy>  (6) 
102.2447946734942

>  <Genealogy>  (6) 
CC(C)(C)[C@H]([N-]C(=O)n1c(C([NH-])=O)cc2ccc(N3CCNCC3)cc21)C(=O)[O-] (protonated)
CC(C)(C)[C@H]([N-]C(=O)n1c(C([NH-])=O)cc2ccc(N3CCNCC3)cc21)C(=O)[O-] (3D coordinates assigned)
CC(C)(C)[C@H]([N-]C(=O)n1c(C([NH-])=O)cc2ccc(N3CCNCC3)cc21)C(=O)[O-] (nonaromatic ring conformer: 102.2447946734942 kcal/mol)

>  <smiles>  (6) 
CC(C)(C)[C@H](NC(=O)n1c(C(N)=O)cc2ccc(N3CCNCC3)cc21)C(=O)O

>  <score_type>  (6) 
oracle

>  <origin>  (6) 
adg

>  <m_score__min__energy>  (6) 
-8.5299999999999994

>  <m_primary>  (6) 
energy

$$$$
7:0
     RDKit          3D

 38 39  0  0  0  0  0  0  0  0999 V2000
  139.7620  159.2450  131.7460 C   0  0  0  0  0  0  0  0  0  0  0  0
  139.0910  158.2510  132.3310 C   0  0  0  0  0  0  0  0  0  0  0  0
  139.6490  157.4820  133.4720 C   0  0  0  0  0  0  0  0  0  0  0  0
  139.2290  157.7300  134.6370 O   0  0  0  0  0  0  0  0  0  0  0  0
  140.6500  156.4510  133.2890 N   0  0  0  0  0  0  0  0  0  0  0  0
  140.2250  155.0480  133.3250 C   0  0  0  0  0  0  0  0  0  0  0  0
  142.0530  156.7640  132.9790 C   0  0  0  0  0  0  0  0  0  0  0  0
  142.6820  157.4980  134.1260 C   0  0  0  0  0  0  0  0  0  0  0  0
  142.4240  157.1580  135.3120 O   0  0  0  0  0  0  0  0  0  0  0  0
  143.5140  158.6390  133.8820 N   0  0  0  0  0  0  0  0  0  0  0  0
  143.1770  159.9550  133.9670 C   0  0  0  0  0  0  0  0  0  0  0  0
  141.8200  160.4810  134.2230 C   0  0  0  0  0  0  0  0  0  0  0  0
  140.9830  159.8440  135.1860 N   0  0  0  0  0  0  0  0  0  0  0  0
  141.4010  161.5020  133.6170 O   0  0  0  0  0  0  0  0  0  0  0  0
  144.2950  160.7570  133.7380 C   0  0  0  0  0  0  0  0  0  0  0  0
  145.3320  159.8790  133.5110 C   0  0  0  0  0  0  0  0  0  0  0  0
  146.6780  160.1240  133.2490 C   0  0  0  0  0  0  0  0  0  0  0  0
  147.5280  159.0170  133.0790 C   0  0  0  0  0  0  0  0  0  0  0  0
  147.0190  157.6960  133.1650 C   0  0  0  0  0  0  0  0  0  0  0  0
  147.9440  156.5230  133.0280 C   0  0  0  0  0  0  0  0  0  0  0  0
  149.1830  156.9620  132.5950 F   0  0  0  0  0  0  0  0  0  0  0  0
  145.6510  157.4860  133.4440 C   0  0  0  0  0  0  0  0  0  0  0  0
  144.8300  158.6080  133.5990 C   0  0  0  0  0  0  0  0  0  0  0  0
  139.3129  159.7903  130.9028 H   0  0  0  0  0  0  0  0  0  0  0  0
  140.7643  159.5192  132.1069 H   0  0  0  0  0  0  0  0  0  0  0  0
  138.0901  157.9924  131.9550 H   0  0  0  0  0  0  0  0  0  0  0  0
  140.1261  154.7216  134.3708 H   0  0  0  0  0  0  0  0  0  0  0  0
  139.2555  154.9454  132.8156 H   0  0  0  0  0  0  0  0  0  0  0  0
  140.9746  154.4246  132.8156 H   0  0  0  0  0  0  0  0  0  0  0  0
  142.6035  155.8287  132.7996 H   0  0  0  0  0  0  0  0  0  0  0  0
  142.0909  157.3982  132.0810 H   0  0  0  0  0  0  0  0  0  0  0  0
  140.9840  158.8070  135.3020 H   0  0  0  0  0  0  0  0  0  0  0  0
  144.3392  161.8561  133.7386 H   0  0  0  0  0  0  0  0  0  0  0  0
  147.0639  161.1516  133.1773 H   0  0  0  0  0  0  0  0  0  0  0  0
  148.5975  159.1769  132.8775 H   0  0  0  0  0  0  0  0  0  0  0  0
  148.0514  156.0247  134.0027 H   0  0  0  0  0  0  0  0  0  0  0  0
  147.5302  155.8125  132.2972 H   0  0  0  0  0  0  0  0  0  0  0  0
  145.2423  156.4690  133.5369 H   0  0  0  0  0  0  0  0  0  0  0  0
  1  2  2  0
  2  3  1  0
  3  4  2  0
  3  5  1  0
  5  6  1  0
  5  7  1  0
  7  8  1  0
  8  9  2  0
  8 10  1  0
 10 11  1  0
 11 12  1  0
 12 13  1  0
 12 14  2  0
 11 15  2  0
 15 16  1  0
 16 17  2  0
 17 18  1  0
 18 19  2  0
 19 20  1  0
 20 21  1  0
 19 22  1  0
 22 23  2  0
 23 10  1  0
 23 16  1  0
  1 24  1  0
  1 25  1  0
  2 26  1  0
  6 27  1  0
  6 28  1  0
  6 29  1  0
  7 30  1  0
  7 31  1  0
 13 32  1  0
 15 33  1  0
 17 34  1  0
 18 35  1  0
 20 36  1  0
 20 37  1  0
 22 38  1  0
M  CHG  1  13  -1
M  END
>  <UniqueID>  (7) 
7

>  <SMILES>  (7) 
C=CC(=O)N(C)CC(=O)n1c(C([NH-])=O)cc2ccc(CF)cc21

>  <Energy>  (7) 
72.60033378325727

>  <Genealogy>  (7) 
C=CC(=O)N(C)CC(=O)n1c(C([NH-])=O)cc2ccc(CF)cc21 (protonated)
C=CC(=O)N(C)CC(=O)n1c(C([NH-])=O)cc2ccc(CF)cc21 (3D coordinates assigned)
C=CC(=O)N(C)CC(=O)n1c(C([NH-])=O)cc2ccc(CF)cc21 (optimized conformer: 72.60033378325727 kcal/mol)

>  <smiles>  (7) 
C=CC(=O)N(C)CC(=O)n1c(C(N)=O)cc2ccc(CF)cc21

>  <score_type>  (7) 
oracle

>  <origin>  (7) 
adg

>  <m_score__min__energy>  (7) 
-6.0700000000000003

>  <m_primary>  (7) 
energy

$$$$
8:0
     RDKit          3D

 34 35  0  0  0  0  0  0  0  0999 V2000
  148.8620  154.9140  132.6180 C   0  0  0  0  0  0  0  0  0  0  0  0
  148.3500  156.3210  132.7030 C   0  0  0  0  0  0  0  0  0  0  0  0
  149.2270  157.4100  132.4680 C   0  0  0  0  0  0  0  0  0  0  0  0
  148.7720  158.7340  132.5920 C   0  0  0  0  0  0  0  0  0  0  0  0
  147.4430  158.9360  132.9550 C   0  0  0  0  0  0  0  0  0  0  0  0
  146.7520  160.1050  133.1800 C   0  0  0  0  0  0  0  0  0  0  0  0
  145.4660  159.7120  133.5460 C   0  0  0  0  0  0  0  0  0  0  0  0
  144.3700  160.6610  133.8370 C   0  0  0  0  0  0  0  0  0  0  0  0
  143.0490  160.4300  133.3530 N   0  0  0  0  0  0  0  0  0  0  0  0
  144.6090  161.7050  134.4990 O   0  0  0  0  0  0  0  0  0  0  0  0
  145.3670  158.3530  133.5440 N   0  0  0  0  0  0  0  0  0  0  0  0
  144.2390  157.5530  133.9330 C   0  0  0  0  0  0  0  0  0  0  0  0
  144.3590  156.7220  134.8720 O   0  0  0  0  0  0  0  0  0  0  0  0
  142.9490  157.6850  133.2440 C   0  0  0  0  0  0  0  0  0  0  0  0
  142.8760  157.4810  132.0010 O   0  0  0  0  0  0  0  0  0  0  0  0
  141.8120  158.0480  133.9740 O   0  0  0  0  0  0  0  0  0  0  0  0
  140.4800  157.8290  133.5120 C   0  0  0  0  0  0  0  0  0  0  0  0
  139.9350  159.0720  132.8120 C   0  0  0  0  0  0  0  0  0  0  0  0
  140.8500  159.5120  131.8480 O   0  0  0  0  0  0  0  0  0  0  0  0
  146.5850  157.8930  133.1850 C   0  0  0  0  0  0  0  0  0  0  0  0
  147.0140  156.5650  133.0880 C   0  0  0  0  0  0  0  0  0  0  0  0
  149.0073  154.5148  133.6326 H   0  0  0  0  0  0  0  0  0  0  0  0
  148.1331  154.2905  132.0795 H   0  0  0  0  0  0  0  0  0  0  0  0
  149.8211  154.9047  132.0795 H   0  0  0  0  0  0  0  0  0  0  0  0
  150.2726  157.2170  132.1862 H   0  0  0  0  0  0  0  0  0  0  0  0
  149.4450  159.5844  132.4079 H   0  0  0  0  0  0  0  0  0  0  0  0
  147.1342  161.1325  133.0899 H   0  0  0  0  0  0  0  0  0  0  0  0
  142.8430  159.6280  132.7180 H   0  0  0  0  0  0  0  0  0  0  0  0
  140.4781  156.9870  132.8041 H   0  0  0  0  0  0  0  0  0  0  0  0
  139.8400  157.6041  134.3780 H   0  0  0  0  0  0  0  0  0  0  0  0
  138.9798  158.8274  132.3243 H   0  0  0  0  0  0  0  0  0  0  0  0
  139.7783  159.8682  133.5547 H   0  0  0  0  0  0  0  0  0  0  0  0
  141.7510  159.2930  132.2040 H   0  0  0  0  0  0  0  0  0  0  0  0
  146.3284  155.7329  133.3060 H   0  0  0  0  0  0  0  0  0  0  0  0
  1  2  1  0
  2  3  2  0
  3  4  1  0
  4  5  2  0
  5  6  1  0
  6  7  2  0
  7  8  1  0
  8  9  1  0
  8 10  2  0
  7 11  1  0
 11 12  1  0
 12 13  2  0
 12 14  1  0
 14 15  2  0
 14 16  1  0
 16 17  1  0
 17 18  1  0
 18 19  1  0
 11 20  1  0
 20 21  2  0
 21  2  1  0
 20  5  1  0
  1 22  1  0
  1 23  1  0
  1 24  1  0
  3 25  1  0
  4 26  1  0
  6 27  1  0
  9 28  1  0
 17 29  1  0
 17 30  1  0
 18 31  1  0
 18 32  1  0
 19 33  1  0
 21 34  1  0
M  CHG  1   9  -1
M  END
>  <UniqueID>  (8) 
8

>  <SMILES>  (8) 
Cc1ccc2cc(C([NH-])=O)n(C(=O)C(=O)OCCO)c2c1

>  <Energy>  (8) 
68.3547690092804

>  <Genealogy>  (8) 
Cc1ccc2cc(C([NH-])=O)n(C(=O)C(=O)OCCO)c2c1 (protonated)
Cc1ccc2cc(C([NH-])=O)n(C(=O)C(=O)OCCO)c2c1 (3D coordinates assigned)
Cc1ccc2cc(C([NH-])=O)n(C(=O)C(=O)OCCO)c2c1 (optimized conformer: 68.3547690092804 kcal/mol)

>  <smiles>  (8) 
Cc1ccc2cc(C(N)=O)n(C(=O)C(=O)OCCO)c2c1

>  <score_type>  (8) 
oracle

>  <origin>  (8) 
adg

>  <m_score__min__energy>  (8) 
-5.29

>  <m_primary>  (8) 
energy

$$$$
9:0
     RDKit          3D

 38 39  0  0  0  0  0  0  0  0999 V2000
  139.6350  158.1610  132.9320 C   0  0  0  0  0  0  0  0  0  0  0  0
  140.4620  158.4730  134.1050 N   0  0  0  0  0  0  0  0  0  0  0  0
  139.9160  158.2280  135.4440 C   0  0  0  0  0  0  0  0  0  0  0  0
  141.7980  159.0180  133.9400 C   0  0  0  0  0  0  0  0  0  0  0  0
  142.0070  160.4240  133.8820 C   0  0  0  0  0  0  0  0  0  0  0  0
  143.2970  160.9610  133.7310 C   0  0  0  0  0  0  0  0  0  0  0  0
  144.3630  160.0770  133.6250 C   0  0  0  0  0  0  0  0  0  0  0  0
  145.7090  160.3320  133.4950 C   0  0  0  0  0  0  0  0  0  0  0  0
  146.3140  159.0790  133.4390 C   0  0  0  0  0  0  0  0  0  0  0  0
  147.7630  158.8880  133.2300 C   0  0  0  0  0  0  0  0  0  0  0  0
  148.4570  157.7890  133.8200 N   0  0  0  0  0  0  0  0  0  0  0  0
  148.3880  159.6780  132.4730 O   0  0  0  0  0  0  0  0  0  0  0  0
  145.3840  158.0880  133.5470 N   0  0  0  0  0  0  0  0  0  0  0  0
  145.6190  156.6720  133.6270 C   0  0  0  0  0  0  0  0  0  0  0  0
  145.4460  155.9500  132.6070 O   0  0  0  0  0  0  0  0  0  0  0  0
  146.0540  156.1100  134.8340 O   0  0  0  0  0  0  0  0  0  0  0  0
  147.1690  155.2760  134.9830 C   0  0  0  0  0  0  0  0  0  0  0  0
  148.0290  155.4890  135.8820 O   0  0  0  0  0  0  0  0  0  0  0  0
  147.3410  154.1210  134.0510 C   0  0  0  0  0  0  0  0  0  0  0  0
  148.5300  154.3410  133.1740 C   0  0  0  0  0  0  0  0  0  0  0  0
  149.1210  153.3620  132.6490 O   0  0  0  0  0  0  0  0  0  0  0  0
  149.0170  155.6280  132.9750 O   0  0  0  0  0  0  0  0  0  0  0  0
  144.1910  158.7190  133.6570 C   0  0  0  0  0  0  0  0  0  0  0  0
  142.9210  158.1570  133.8340 C   0  0  0  0  0  0  0  0  0  0  0  0
  138.6536  157.7907  133.2633 H   0  0  0  0  0  0  0  0  0  0  0  0
  139.4990  159.0696  132.3271 H   0  0  0  0  0  0  0  0  0  0  0  0
  140.1330  157.3890  132.3271 H   0  0  0  0  0  0  0  0  0  0  0  0
  140.6433  158.5544  136.2019 H   0  0  0  0  0  0  0  0  0  0  0  0
  138.9799  158.7924  135.5672 H   0  0  0  0  0  0  0  0  0  0  0  0
  139.7153  157.1535  135.5672 H   0  0  0  0  0  0  0  0  0  0  0  0
  141.1443  161.1024  133.9566 H   0  0  0  0  0  0  0  0  0  0  0  0
  143.4575  162.0487  133.6978 H   0  0  0  0  0  0  0  0  0  0  0  0
  146.2013  161.3145  133.4459 H   0  0  0  0  0  0  0  0  0  0  0  0
  147.9400  157.0260  134.3120 H   0  0  0  0  0  0  0  0  0  0  0  0
  149.4890  157.6920  133.6970 H   0  0  0  0  0  0  0  0  0  0  0  0
  147.4855  153.2004  134.6355 H   0  0  0  0  0  0  0  0  0  0  0  0
  146.4427  154.0287  133.4228 H   0  0  0  0  0  0  0  0  0  0  0  0
  142.7957  157.0656  133.8900 H   0  0  0  0  0  0  0  0  0  0  0  0
  1  2  1  0
  2  3  1  0
  2  4  1  0
  4  5  2  0
  5  6  1  0
  6  7  2  0
  7  8  1  0
  8  9  2  0
  9 10  1  0
 10 11  1  0
 10 12  2  0
  9 13  1  0
 13 14  1  0
 14 15  2  0
 14 16  1  0
 16 17  1  0
 17 18  2  0
 17 19  1  0
 19 20  1  0
 20 21  2  0
 20 22  1  0
 13 23  1  0
 23 24  2  0
 24  4  1  0
 23  7  1  0
  1 25  1  0
  1 26  1  0
  1 27  1  0
  3 28  1  0
  3 29  1  0
  3 30  1  0
  5 31  1  0
  6 32  1  0
  8 33  1  0
 11 34  1  0
 11 35  1  0
 19 36  1  0
 19 37  1  0
 24 38  1  0
M  CHG  1  22  -1
M  END
>  <UniqueID>  (9) 
9

>  <SMILES>  (9) 
CN(C)c1ccc2cc(C(N)=O)n(C(=O)OC(=O)CC(=O)[O-])c2c1

>  <Energy>  (9) 
77.1209800475903

>  <Genealogy>  (9) 
CN(C)c1ccc2cc(C(N)=O)n(C(=O)OC(=O)CC(=O)[O-])c2c1 (protonated)
CN(C)c1ccc2cc(C(N)=O)n(C(=O)OC(=O)CC(=O)[O-])c2c1 (3D coordinates assigned)
CN(C)c1ccc2cc(C(N)=O)n(C(=O)OC(=O)CC(=O)[O-])c2c1 (optimized conformer: 77.1209800475903 kcal/mol)

>  <smiles>  (9) 
CN(C)c1ccc2cc(C(N)=O)n(C(=O)OC(=O)CC(=O)O)c2c1

>  <score_type>  (9) 
oracle

>  <origin>  (9) 
adg

>  <m_score__min__energy>  (9) 
-6.5700000000000003

>  <m_primary>  (9) 
energy

$$$$
10:0
     RDKit          3D

 44 45  0  0  0  0  0  0  0  0999 V2000
  142.3890  150.9650  132.9300 C   0  0  0  0  0  0  0  0  0  0  0  0
  141.3710  151.7770  132.2400 N   0  0  1  0  0  0  0  0  0  0  0  0
  140.1040  151.0310  132.0650 C   0  0  0  0  0  0  0  0  0  0  0  0
  140.3400  149.5670  131.8180 C   0  0  0  0  0  0  0  0  0  0  0  0
  139.5220  148.8690  131.0770 C   0  0  0  0  0  0  0  0  0  0  0  0
  138.7440  148.2110  130.3740 O   0  0  0  0  0  0  0  0  0  0  0  0
  141.1230  152.9940  132.9870 C   0  0  0  0  0  0  0  0  0  0  0  0
  140.2540  153.7760  132.6230 O   0  0  0  0  0  0  0  0  0  0  0  0
  141.9530  153.3320  134.1980 C   0  0  0  0  0  0  0  0  0  0  0  0
  142.7000  154.6180  133.9690 C   0  0  0  0  0  0  0  0  0  0  0  0
  143.9370  154.6160  133.2770 C   0  0  0  0  0  0  0  0  0  0  0  0
  144.6150  155.8190  133.0190 C   0  0  0  0  0  0  0  0  0  0  0  0
  144.0260  157.0050  133.4500 C   0  0  0  0  0  0  0  0  0  0  0  0
  144.4660  158.3030  133.3370 C   0  0  0  0  0  0  0  0  0  0  0  0
  143.4740  159.0830  133.9290 C   0  0  0  0  0  0  0  0  0  0  0  0
  143.5010  160.5600  133.9380 C   0  0  0  0  0  0  0  0  0  0  0  0
  142.3120  161.3190  133.7280 N   0  0  0  0  0  0  0  0  0  0  0  0
  144.5980  161.1620  134.0850 O   0  0  0  0  0  0  0  0  0  0  0  0
  142.4650  158.2950  134.4000 N   0  0  0  0  0  0  0  0  0  0  0  0
  141.2870  158.6970  135.1160 C   0  0  0  0  0  0  0  0  0  0  0  0
  141.2390  158.5620  136.3690 O   0  0  0  0  0  0  0  0  0  0  0  0
  140.1930  159.2100  134.4060 O   0  0  0  0  0  0  0  0  0  0  0  0
  139.9170  158.9600  133.0560 C   0  0  0  0  0  0  0  0  0  0  0  0
  140.2980  159.7540  132.1530 O   0  0  0  0  0  0  0  0  0  0  0  0
  139.1290  157.7470  132.6810 C   0  0  0  0  0  0  0  0  0  0  0  0
  139.9660  156.6470  132.6220 F   0  0  0  0  0  0  0  0  0  0  0  0
  138.5450  157.9420  131.4440 F   0  0  0  0  0  0  0  0  0  0  0  0
  138.1400  157.5110  133.6170 F   0  0  0  0  0  0  0  0  0  0  0  0
  142.8190  157.0260  134.0990 C   0  0  0  0  0  0  0  0  0  0  0  0
  142.1350  155.8410  134.3920 C   0  0  0  0  0  0  0  0  0  0  0  0
  142.2627  151.0658  134.0181 H   0  0  0  0  0  0  0  0  0  0  0  0
  142.2720  149.9094  132.6435 H   0  0  0  0  0  0  0  0  0  0  0  0
  143.3922  151.3137  132.6435 H   0  0  0  0  0  0  0  0  0  0  0  0
  141.7530  152.0330  131.2980 H   0  0  0  0  0  0  0  0  0  0  0  0
  139.4971  151.1439  132.9755 H   0  0  0  0  0  0  0  0  0  0  0  0
  139.5860  151.4438  131.1868 H   0  0  0  0  0  0  0  0  0  0  0  0
  141.2153  149.0761  132.2684 H   0  0  0  0  0  0  0  0  0  0  0  0
  141.2937  153.4445  135.0713 H   0  0  0  0  0  0  0  0  0  0  0  0
  142.6757  152.5223  134.3772 H   0  0  0  0  0  0  0  0  0  0  0  0
  144.3703  153.6632  132.9387 H   0  0  0  0  0  0  0  0  0  0  0  0
  145.5810  155.8240  132.4929 H   0  0  0  0  0  0  0  0  0  0  0  0
  145.4023  158.6518  132.8770 H   0  0  0  0  0  0  0  0  0  0  0  0
  141.3810  160.8500  133.6570 H   0  0  0  0  0  0  0  0  0  0  0  0
  141.1806  155.8617  134.9385 H   0  0  0  0  0  0  0  0  0  0  0  0
  1  2  1  0
  2  3  1  0
  3  4  1  0
  4  5  2  0
  5  6  2  0
  2  7  1  0
  7  8  2  0
  7  9  1  0
  9 10  1  0
 10 11  2  0
 11 12  1  0
 12 13  2  0
 13 14  1  0
 14 15  2  0
 15 16  1  0
 16 17  1  0
 16 18  2  0
 15 19  1  0
 19 20  1  0
 20 21  2  0
 20 22  1  0
 22 23  1  0
 23 24  2  0
 23 25  1  0
 25 26  1  0
 25 27  1  0
 25 28  1  0
 19 29  1  0
 29 30  2  0
 30 10  1  0
 29 13  1  0
  1 31  1  0
  1 32  1  0
  1 33  1  0
  2 34  1  6
  3 35  1  0
  3 36  1  0
  4 37  1  0
  9 38  1  0
  9 39  1  0
 11 40  1  0
 12 41  1  0
 14 42  1  0
 17 43  1  0
 30 44  1  0
M  CHG  2   2   1  17  -1
M  END
>  <UniqueID>  (10) 
10

>  <SMILES>  (10) 
C[N@@H+](CC=C=O)C(=O)Cc1ccc2cc(C([NH-])=O)n(C(=O)OC(=O)C(F)(F)F)c2c1

>  <Energy>  (10) 
78.49353955218176

>  <Genealogy>  (10) 
C[NH+](CC=C=O)C(=O)Cc1ccc2cc(C([NH-])=O)n(C(=O)OC(=O)C(F)(F)F)c2c1 (protonated)
C[N@@H+](CC=C=O)C(=O)Cc1ccc2cc(C([NH-])=O)n(C(=O)OC(=O)C(F)(F)F)c2c1 (chirality)
C[N@@H+](CC=C=O)C(=O)Cc1ccc2cc(C([NH-])=O)n(C(=O)OC(=O)C(F)(F)F)c2c1 (3D coordinates assigned)
C[N@@H+](CC=C=O)C(=O)Cc1ccc2cc(C([NH-])=O)n(C(=O)OC(=O)C(F)(F)F)c2c1 (optimized conformer: 78.49353955218176 kcal/mol)

>  <smiles>  (10) 
CN(CC=C=O)C(=O)Cc1ccc2cc(C(N)=O)n(C(=O)OC(=O)C(F)(F)F)c2c1

>  <score_type>  (10) 
oracle

>  <origin>  (10) 
adg

>  <m_score__min__energy>  (10) 
-7.8099999999999996

>  <m_primary>  (10) 
energy

$$$$
11:0
     RDKit          3D

 42 44  0  0  0  0  0  0  0  0999 V2000
  144.8270  161.2430  133.9260 C   0  0  0  0  0  0  0  0  0  0  0  0
  144.5920  159.8080  133.7010 N   0  0  0  0  0  0  0  0  0  0  0  0
  145.7360  158.9500  133.5140 C   0  0  0  0  0  0  0  0  0  0  0  0
  147.0450  159.4980  133.4700 C   0  0  0  0  0  0  0  0  0  0  0  0
  148.1660  158.6720  133.2850 C   0  0  0  0  0  0  0  0  0  0  0  0
  147.9530  157.3020  133.1590 C   0  0  0  0  0  0  0  0  0  0  0  0
  148.8500  156.2810  132.9450 C   0  0  0  0  0  0  0  0  0  0  0  0
  148.0820  155.1190  132.8880 C   0  0  0  0  0  0  0  0  0  0  0  0
  148.6580  153.7680  132.7120 C   0  0  0  0  0  0  0  0  0  0  0  0
  147.9920  152.6110  133.2100 N   0  0  0  0  0  0  0  0  0  0  0  0
  149.7700  153.6350  132.1340 O   0  0  0  0  0  0  0  0  0  0  0  0
  146.7620  155.4130  133.0620 N   0  0  0  0  0  0  0  0  0  0  0  0
  145.6470  154.5070  133.0270 C   0  0  0  0  0  0  0  0  0  0  0  0
  144.7390  154.6790  132.1670 O   0  0  0  0  0  0  0  0  0  0  0  0
  145.6020  153.3730  133.9240 N   0  0  2  0  0  0  0  0  0  0  0  0
  144.3590  152.6150  133.7250 C   0  0  0  0  0  0  0  0  0  0  0  0
  145.7210  153.7950  135.2990 C   0  0  0  0  0  0  0  0  0  0  0  0
  144.8480  154.5370  135.8270 O   0  0  0  0  0  0  0  0  0  0  0  0
  146.7960  153.3640  136.0660 O   0  0  0  0  0  0  0  0  0  0  0  0
  146.7000  156.7520  133.2230 C   0  0  0  0  0  0  0  0  0  0  0  0
  145.5650  157.5520  133.3840 C   0  0  0  0  0  0  0  0  0  0  0  0
  143.2370  159.2320  133.5630 C   0  0  0  0  0  0  0  0  0  0  0  0
  142.6670  158.6320  134.8290 C   0  0  0  0  0  0  0  0  0  0  0  0
  141.6730  159.6260  134.9270 O   0  0  0  0  0  0  0  0  0  0  0  0
  142.1260  160.2380  133.7400 C   0  0  0  0  0  0  0  0  0  0  0  0
  144.8599  161.4441  135.0070 H   0  0  0  0  0  0  0  0  0  0  0  0
  145.7847  161.5337  133.4696 H   0  0  0  0  0  0  0  0  0  0  0  0
  144.0120  161.8240  133.4696 H   0  0  0  0  0  0  0  0  0  0  0  0
  147.1831  160.5835  133.5822 H   0  0  0  0  0  0  0  0  0  0  0  0
  149.1807  159.0945  133.2411 H   0  0  0  0  0  0  0  0  0  0  0  0
  149.9419  156.3640  132.8409 H   0  0  0  0  0  0  0  0  0  0  0  0
  147.6000  152.5900  134.1760 H   0  0  0  0  0  0  0  0  0  0  0  0
  146.4010  152.7340  133.7050 H   0  0  0  0  0  0  0  0  0  0  0  0
  143.9289  152.3527  134.7029 H   0  0  0  0  0  0  0  0  0  0  0  0
  143.6412  153.2292  133.1616 H   0  0  0  0  0  0  0  0  0  0  0  0
  144.5764  151.6956  133.1616 H   0  0  0  0  0  0  0  0  0  0  0  0
  144.5607  157.1040  133.4090 H   0  0  0  0  0  0  0  0  0  0  0  0
  143.4096  158.6533  132.6436 H   0  0  0  0  0  0  0  0  0  0  0  0
  142.2623  157.6185  134.6910 H   0  0  0  0  0  0  0  0  0  0  0  0
  143.3351  158.4586  135.6855 H   0  0  0  0  0  0  0  0  0  0  0  0
  141.3850  160.2208  132.9272 H   0  0  0  0  0  0  0  0  0  0  0  0
  142.3743  161.3095  133.7539 H   0  0  0  0  0  0  0  0  0  0  0  0
  1  2  1  0
  2  3  1  0
  3  4  2  0
  4  5  1  0
  5  6  2  0
  6  7  1  0
  7  8  2  0
  8  9  1  0
  9 10  1  0
  9 11  2  0
  8 12  1  0
 12 13  1  0
 13 14  2  0
 13 15  1  0
 15 16  1  0
 15 17  1  0
 17 18  2  0
 17 19  1  0
 12 20  1  0
 20 21  2  0
  2 22  1  0
 22 23  1  0
 23 24  1  0
 24 25  1  0
 21  3  1  0
 25 22  1  0
 20  6  1  0
  1 26  1  0
  1 27  1  0
  1 28  1  0
  4 29  1  0
  5 30  1  0
  7 31  1  0
 10 32  1  0
 15 33  1  6
 16 34  1  0
 16 35  1  0
 16 36  1  0
 21 37  1  0
 22 38  1  0
 23 39  1  0
 23 40  1  0
 25 41  1  0
 25 42  1  0
M  CHG  3  10  -1  15   1  19  -1
M  END
>  <UniqueID>  (11) 
11

>  <SMILES>  (11) 
CN(c1ccc2cc(C([NH-])=O)n(C(=O)[NH+](C)C(=O)[O-])c2c1)C1COC1

>  <Energy>  (11) 
154.66659272088458

>  <Genealogy>  (11) 
CN(c1ccc2cc(C([NH-])=O)n(C(=O)[NH+](C)C(=O)[O-])c2c1)C1COC1 (protonated)
CN(c1ccc2cc(C([NH-])=O)n(C(=O)[NH+](C)C(=O)[O-])c2c1)C1COC1 (3D coordinates assigned)
CN(c1ccc2cc(C([NH-])=O)n(C(=O)[NH+](C)C(=O)[O-])c2c1)C1COC1 (nonaromatic ring conformer: 154.66659272088458 kcal/mol)

>  <smiles>  (11) 
CN(C(=O)O)C(=O)n1c(C(N)=O)cc2ccc(N(C)C3COC3)cc21

>  <score_type>  (11) 
oracle

>  <origin>  (11) 
adg

>  <m_score__min__energy>  (11) 
-6.5999999999999996

>  <m_primary>  (11) 
energy

$$$$
12:0
     RDKit          3D

 47 49  0  0  0  0  0  0  0  0999 V2000
  141.5740  153.1360  132.6480 C   0  0  0  0  0  0  0  0  0  0  0  0
  142.7260  152.2680  132.9250 N   0  0  0  0  0  0  0  0  0  0  0  0
  144.0710  152.8170  132.8840 C   0  0  0  0  0  0  0  0  0  0  0  0
  145.0650  152.0400  132.9070 O   0  0  0  0  0  0  0  0  0  0  0  0
  144.3220  154.3050  132.7610 C   0  0  0  0  0  0  0  0  0  0  0  0
  145.2890  154.8070  133.8000 C   0  0  0  0  0  0  0  0  0  0  0  0
  145.2290  154.3400  134.9710 O   0  0  0  0  0  0  0  0  0  0  0  0
  146.3150  155.7610  133.4670 N   0  0  0  0  0  0  0  0  0  0  0  0
  147.6320  155.4970  133.2280 C   0  0  0  0  0  0  0  0  0  0  0  0
  148.2310  154.1480  133.1300 C   0  0  0  0  0  0  0  0  0  0  0  0
  147.5590  153.0070  133.6700 N   0  0  0  0  0  0  0  0  0  0  0  0
  149.3560  153.9930  132.5870 O   0  0  0  0  0  0  0  0  0  0  0  0
  148.3360  156.6800  133.0050 C   0  0  0  0  0  0  0  0  0  0  0  0
  147.4050  157.6850  133.1160 C   0  0  0  0  0  0  0  0  0  0  0  0
  147.5620  159.0630  133.0090 C   0  0  0  0  0  0  0  0  0  0  0  0
  146.4320  159.8740  133.2070 C   0  0  0  0  0  0  0  0  0  0  0  0
  145.1690  159.2980  133.4990 C   0  0  0  0  0  0  0  0  0  0  0  0
  143.9740  160.1750  133.7750 C   0  0  0  0  0  0  0  0  0  0  0  0
  144.2980  161.4880  133.4900 F   0  0  0  0  0  0  0  0  0  0  0  0
  142.8950  159.7960  132.9960 F   0  0  0  0  0  0  0  0  0  0  0  0
  143.5990  160.0830  135.1050 F   0  0  0  0  0  0  0  0  0  0  0  0
  145.0590  157.8950  133.6260 C   0  0  0  0  0  0  0  0  0  0  0  0
  146.1940  157.1080  133.3980 C   0  0  0  0  0  0  0  0  0  0  0  0
  142.4780  150.8400  133.2340 C   0  0  1  0  0  0  0  0  0  0  0  0
  140.9920  150.4950  133.2000 C   0  0  0  0  0  0  0  0  0  0  0  0
  140.8980  149.2620  132.3160 C   0  0  0  0  0  0  0  0  0  0  0  0
  142.0840  149.2430  131.4640 N   0  0  0  0  0  0  0  0  0  0  0  0
  143.1450  149.8980  132.2260 C   0  0  0  0  0  0  0  0  0  0  0  0
  141.1302  153.4704  133.5973 H   0  0  0  0  0  0  0  0  0  0  0  0
  141.9050  154.0112  132.0696 H   0  0  0  0  0  0  0  0  0  0  0  0
  140.8240  152.5765  132.0696 H   0  0  0  0  0  0  0  0  0  0  0  0
  144.7350  154.5132  131.7629 H   0  0  0  0  0  0  0  0  0  0  0  0
  143.3636  154.8227  132.9140 H   0  0  0  0  0  0  0  0  0  0  0  0
  148.0050  152.0650  133.6160 H   0  0  0  0  0  0  0  0  0  0  0  0
  146.5960  153.0800  134.0670 H   0  0  0  0  0  0  0  0  0  0  0  0
  149.4089  156.7863  132.7866 H   0  0  0  0  0  0  0  0  0  0  0  0
  148.5421  159.5048  132.7762 H   0  0  0  0  0  0  0  0  0  0  0  0
  146.5277  160.9674  133.1348 H   0  0  0  0  0  0  0  0  0  0  0  0
  144.1001  157.4302  133.8988 H   0  0  0  0  0  0  0  0  0  0  0  0
  142.8986  150.7009  134.2408 H   0  0  0  0  0  0  0  0  0  0  0  0
  140.6224  150.2747  134.2124 H   0  0  0  0  0  0  0  0  0  0  0  0
  140.3820  151.3267  132.8176 H   0  0  0  0  0  0  0  0  0  0  0  0
  140.8674  148.3552  132.9379 H   0  0  0  0  0  0  0  0  0  0  0  0
  139.9828  149.2904  131.7065 H   0  0  0  0  0  0  0  0  0  0  0  0
  142.3550  148.2500  131.2760 H   0  0  0  0  0  0  0  0  0  0  0  0
  143.7452  149.1446  132.7571 H   0  0  0  0  0  0  0  0  0  0  0  0
  143.8119  150.4596  131.5553 H   0  0  0  0  0  0  0  0  0  0  0  0
  1  2  1  0
  2  3  1  0
  3  4  2  0
  3  5  1  0
  5  6  1  0
  6  7  2  0
  6  8  1  0
  8  9  1  0
  9 10  1  0
 10 11  1  0
 10 12  2  0
  9 13  2  0
 13 14  1  0
 14 15  2  0
 15 16  1  0
 16 17  2  0
 17 18  1  0
 18 19  1  0
 18 20  1  0
 18 21  1  0
 17 22  1  0
 22 23  2  0
  2 24  1  0
 24 25  1  0
 25 26  1  0
 26 27  1  0
 27 28  1  0
 23  8  1  0
 28 24  1  0
 23 14  1  0
  1 29  1  0
  1 30  1  0
  1 31  1  0
  5 32  1  0
  5 33  1  0
 11 34  1  0
 11 35  1  0
 13 36  1  0
 15 37  1  0
 16 38  1  0
 22 39  1  0
 24 40  1  1
 25 41  1  0
 25 42  1  0
 26 43  1  0
 26 44  1  0
 27 45  1  0
 28 46  1  0
 28 47  1  0
M  END
>  <UniqueID>  (12) 
12

>  <SMILES>  (12) 
CN(C(=O)CC(=O)n1c(C(N)=O)cc2ccc(C(F)(F)F)cc21)[C@H]1CCNC1

>  <Energy>  (12) 
88.12949850421455

>  <Genealogy>  (12) 
CN(C(=O)CC(=O)n1c(C(N)=O)cc2ccc(C(F)(F)F)cc21)[C@H]1CCNC1 (3D coordinates assigned)
CN(C(=O)CC(=O)n1c(C(N)=O)cc2ccc(C(F)(F)F)cc21)[C@H]1CCNC1 (nonaromatic ring conformer: 88.12949850421455 kcal/mol)

>  <smiles>  (12) 
CN(C(=O)CC(=O)n1c(C(N)=O)cc2ccc(C(F)(F)F)cc21)[C@H]1CCNC1

>  <score_type>  (12) 
oracle

>  <origin>  (12) 
adg

>  <m_score__min__energy>  (12) 
-8.25

>  <m_primary>  (12) 
energy

$$$$
13:0
     RDKit          3D

 36 37  0  0  0  0  0  0  0  0999 V2000
  143.2450  154.8740  134.9780 C   0  0  0  0  0  0  0  0  0  0  0  0
  144.2890  154.2350  134.1700 N   0  0  0  0  0  0  0  0  0  0  0  0
  143.9300  153.2380  133.1880 C   0  0  0  0  0  0  0  0  0  0  0  0
  144.7860  152.4040  132.7850 O   0  0  0  0  0  0  0  0  0  0  0  0
  142.2520  153.0980  132.5540 S   0  0  0  0  0  0  0  0  0  0  0  0
  141.9140  151.4890  133.3420 C   0  0  0  0  0  0  0  0  0  0  0  0
  142.9000  150.5780  133.0090 F   0  0  0  0  0  0  0  0  0  0  0  0
  141.9010  151.6560  134.7130 F   0  0  0  0  0  0  0  0  0  0  0  0
  140.6840  151.0100  132.9360 F   0  0  0  0  0  0  0  0  0  0  0  0
  145.6720  154.4430  134.5240 C   0  0  0  0  0  0  0  0  0  0  0  0
  146.1710  153.8180  135.4970 O   0  0  0  0  0  0  0  0  0  0  0  0
  146.4920  155.3610  133.7820 N   0  0  0  0  0  0  0  0  0  0  0  0
  147.7130  155.1270  133.2260 C   0  0  0  0  0  0  0  0  0  0  0  0
  148.3860  153.8160  133.1410 C   0  0  0  0  0  0  0  0  0  0  0  0
  147.7250  152.6160  133.5430 N   0  0  0  0  0  0  0  0  0  0  0  0
  149.5470  153.7470  132.6560 O   0  0  0  0  0  0  0  0  0  0  0  0
  148.2440  156.3010  132.6970 C   0  0  0  0  0  0  0  0  0  0  0  0
  147.2920  157.2690  132.9330 C   0  0  0  0  0  0  0  0  0  0  0  0
  147.2940  158.6230  132.6180 C   0  0  0  0  0  0  0  0  0  0  0  0
  146.1830  159.3910  133.0070 C   0  0  0  0  0  0  0  0  0  0  0  0
  145.1080  158.8020  133.7220 C   0  0  0  0  0  0  0  0  0  0  0  0
  143.9050  159.6300  134.0990 C   0  0  0  0  0  0  0  0  0  0  0  0
  143.2310  159.0570  135.1650 F   0  0  0  0  0  0  0  0  0  0  0  0
  143.0500  159.7080  133.0170 F   0  0  0  0  0  0  0  0  0  0  0  0
  144.2870  160.9080  134.4670 F   0  0  0  0  0  0  0  0  0  0  0  0
  145.1340  157.4170  134.0030 C   0  0  0  0  0  0  0  0  0  0  0  0
  146.2450  156.6750  133.5880 C   0  0  0  0  0  0  0  0  0  0  0  0
  143.4713  154.7355  136.0455 H   0  0  0  0  0  0  0  0  0  0  0  0
  143.2092  155.9489  134.7472 H   0  0  0  0  0  0  0  0  0  0  0  0
  142.2715  154.4168  134.7472 H   0  0  0  0  0  0  0  0  0  0  0  0
  148.2350  151.7050  133.5200 H   0  0  0  0  0  0  0  0  0  0  0  0
  146.7070  152.6100  133.7740 H   0  0  0  0  0  0  0  0  0  0  0  0
  149.2158  156.4283  132.1975 H   0  0  0  0  0  0  0  0  0  0  0  0
  148.1388  159.0791  132.0810 H   0  0  0  0  0  0  0  0  0  0  0  0
  146.1464  160.4610  132.7543 H   0  0  0  0  0  0  0  0  0  0  0  0
  144.3010  156.9343  134.5351 H   0  0  0  0  0  0  0  0  0  0  0  0
  1  2  1  0
  2  3  1  0
  3  4  2  0
  3  5  1  0
  5  6  1  0
  6  7  1  0
  6  8  1  0
  6  9  1  0
  2 10  1  0
 10 11  2  0
 10 12  1  0
 12 13  1  0
 13 14  1  0
 14 15  1  0
 14 16  2  0
 13 17  2  0
 17 18  1  0
 18 19  2  0
 19 20  1  0
 20 21  2  0
 21 22  1  0
 22 23  1  0
 22 24  1  0
 22 25  1  0
 21 26  1  0
 26 27  2  0
 27 12  1  0
 27 18  1  0
  1 28  1  0
  1 29  1  0
  1 30  1  0
 15 31  1  0
 15 32  1  0
 17 33  1  0
 19 34  1  0
 20 35  1  0
 26 36  1  0
M  END
>  <UniqueID>  (13) 
13

>  <SMILES>  (13) 
CN(C(=O)SC(F)(F)F)C(=O)n1c(C(N)=O)cc2ccc(C(F)(F)F)cc21

>  <Energy>  (13) 
74.68380774124705

>  <Genealogy>  (13) 
CN(C(=O)SC(F)(F)F)C(=O)n1c(C(N)=O)cc2ccc(C(F)(F)F)cc21 (3D coordinates assigned)
CN(C(=O)SC(F)(F)F)C(=O)n1c(C(N)=O)cc2ccc(C(F)(F)F)cc21 (optimized conformer: 74.68380774124705 kcal/mol)

>  <smiles>  (13) 
CN(C(=O)SC(F)(F)F)C(=O)n1c(C(N)=O)cc2ccc(C(F)(F)F)cc21

>  <score_type>  (13) 
oracle

>  <origin>  (13) 
adg

>  <m_score__min__energy>  (13) 
-6.25

>  <m_primary>  (13) 
energy

$$$$
14:0
     RDKit          3D

 38 39  0  0  0  0  0  0  0  0999 V2000
  140.5610  158.3630  133.3170 C   0  0  0  0  0  0  0  0  0  0  0  0
  141.9410  158.9410  133.4170 C   0  0  0  0  0  0  0  0  0  0  0  0
  142.1140  160.3290  133.6390 C   0  0  0  0  0  0  0  0  0  0  0  0
  143.4020  160.8790  133.7590 C   0  0  0  0  0  0  0  0  0  0  0  0
  144.4910  160.0180  133.6650 C   0  0  0  0  0  0  0  0  0  0  0  0
  145.8410  160.2810  133.7340 C   0  0  0  0  0  0  0  0  0  0  0  0
  146.4700  159.0430  133.5700 C   0  0  0  0  0  0  0  0  0  0  0  0
  147.9360  158.8260  133.5990 C   0  0  0  0  0  0  0  0  0  0  0  0
  148.4910  157.6010  134.0830 N   0  0  0  0  0  0  0  0  0  0  0  0
  148.7150  159.7260  133.1920 O   0  0  0  0  0  0  0  0  0  0  0  0
  145.5380  158.0630  133.4050 N   0  0  0  0  0  0  0  0  0  0  0  0
  145.7620  156.6620  133.1830 C   0  0  0  0  0  0  0  0  0  0  0  0
  146.8130  156.2950  132.5930 O   0  0  0  0  0  0  0  0  0  0  0  0
  144.8110  155.6790  133.6400 N   0  0  0  0  0  0  0  0  0  0  0  0
  143.9770  154.9820  132.6560 C   0  0  0  0  0  0  0  0  0  0  0  0
  144.7450  155.3010  135.0590 C   0  0  0  0  0  0  0  0  0  0  0  0
  145.4200  153.9440  135.2780 C   0  0  0  0  0  0  0  0  0  0  0  0
  146.7610  154.1190  135.9180 C   0  0  0  0  0  0  0  0  0  0  0  0
  147.4280  155.1670  135.7170 O   0  0  0  0  0  0  0  0  0  0  0  0
  147.2640  153.1330  136.7550 O   0  0  0  0  0  0  0  0  0  0  0  0
  144.3370  158.6710  133.4720 C   0  0  0  0  0  0  0  0  0  0  0  0
  143.0690  158.0950  133.3440 C   0  0  0  0  0  0  0  0  0  0  0  0
  140.1598  158.1950  134.3273 H   0  0  0  0  0  0  0  0  0  0  0  0
  139.9085  159.0634  132.7752 H   0  0  0  0  0  0  0  0  0  0  0  0
  140.6024  157.4066  132.7752 H   0  0  0  0  0  0  0  0  0  0  0  0
  141.2327  160.9824  133.7182 H   0  0  0  0  0  0  0  0  0  0  0  0
  143.5447  161.9574  133.9223 H   0  0  0  0  0  0  0  0  0  0  0  0
  146.3226  161.2582  133.8860 H   0  0  0  0  0  0  0  0  0  0  0  0
  149.5270  157.4770  134.1200 H   0  0  0  0  0  0  0  0  0  0  0  0
  147.8890  156.8130  134.4090 H   0  0  0  0  0  0  0  0  0  0  0  0
  143.2344  154.3613  133.1788 H   0  0  0  0  0  0  0  0  0  0  0  0
  143.4595  155.7200  132.0255 H   0  0  0  0  0  0  0  0  0  0  0  0
  144.6114  154.3417  132.0255 H   0  0  0  0  0  0  0  0  0  0  0  0
  145.2590  156.0638  135.6623 H   0  0  0  0  0  0  0  0  0  0  0  0
  143.6900  155.2296  135.3622 H   0  0  0  0  0  0  0  0  0  0  0  0
  144.7859  153.3262  135.9309 H   0  0  0  0  0  0  0  0  0  0  0  0
  145.5543  153.4537  134.3025 H   0  0  0  0  0  0  0  0  0  0  0  0
  142.9536  157.0119  133.1905 H   0  0  0  0  0  0  0  0  0  0  0  0
  1  2  1  0
  2  3  2  0
  3  4  1  0
  4  5  2  0
  5  6  1  0
  6  7  2  0
  7  8  1  0
  8  9  1  0
  8 10  2  0
  7 11  1  0
 11 12  1  0
 12 13  2  0
 12 14  1  0
 14 15  1  0
 14 16  1  0
 16 17  1  0
 17 18  1  0
 18 19  2  0
 18 20  1  0
 11 21  1  0
 21 22  2  0
 22  2  1  0
 21  5  1  0
  1 23  1  0
  1 24  1  0
  1 25  1  0
  3 26  1  0
  4 27  1  0
  6 28  1  0
  9 29  1  0
  9 30  1  0
 15 31  1  0
 15 32  1  0
 15 33  1  0
 16 34  1  0
 16 35  1  0
 17 36  1  0
 17 37  1  0
 22 38  1  0
M  CHG  1  20  -1
M  END
>  <UniqueID>  (14) 
14

>  <SMILES>  (14) 
Cc1ccc2cc(C(N)=O)n(C(=O)N(C)CCC(=O)[O-])c2c1

>  <Energy>  (14) 
70.81490747394363

>  <Genealogy>  (14) 
Cc1ccc2cc(C(N)=O)n(C(=O)N(C)CCC(=O)[O-])c2c1 (protonated)
Cc1ccc2cc(C(N)=O)n(C(=O)N(C)CCC(=O)[O-])c2c1 (3D coordinates assigned)
Cc1ccc2cc(C(N)=O)n(C(=O)N(C)CCC(=O)[O-])c2c1 (optimized conformer: 70.81490747394363 kcal/mol)

>  <smiles>  (14) 
Cc1ccc2cc(C(N)=O)n(C(=O)N(C)CCC(=O)O)c2c1

>  <score_type>  (14) 
oracle

>  <origin>  (14) 
adg

>  <m_score__min__energy>  (14) 
-6.5800000000000001

>  <m_primary>  (14) 
energy

$$$$
15:0
     RDKit          3D

 50 51  0  0  0  0  0  0  0  0999 V2000
  140.5320  158.7310  133.3210 C   0  0  0  0  0  0  0  0  0  0  0  0
  141.9660  159.1380  133.4820 C   0  0  0  0  0  0  0  0  0  0  0  0
  142.2950  160.4940  133.7220 C   0  0  0  0  0  0  0  0  0  0  0  0
  143.6380  160.8970  133.8260 C   0  0  0  0  0  0  0  0  0  0  0  0
  144.6220  159.9240  133.6860 C   0  0  0  0  0  0  0  0  0  0  0  0
  145.9940  160.0400  133.7140 C   0  0  0  0  0  0  0  0  0  0  0  0
  146.4770  158.7520  133.4910 C   0  0  0  0  0  0  0  0  0  0  0  0
  147.9150  158.4190  133.4170 C   0  0  0  0  0  0  0  0  0  0  0  0
  148.4540  157.4060  134.2630 N   0  0  0  0  0  0  0  0  0  0  0  0
  148.6800  159.0370  132.6310 O   0  0  0  0  0  0  0  0  0  0  0  0
  145.4460  157.8720  133.3560 N   0  0  0  0  0  0  0  0  0  0  0  0
  145.5290  156.4440  133.2250 C   0  0  0  0  0  0  0  0  0  0  0  0
  146.5800  155.9190  132.7710 O   0  0  0  0  0  0  0  0  0  0  0  0
  144.3640  155.5640  133.6000 C   0  0  0  0  0  0  0  0  0  0  0  0
  144.8020  154.3590  134.3270 N   0  0  0  0  0  0  0  0  0  0  0  0
  145.1960  154.4830  135.7370 C   0  0  0  0  0  0  0  0  0  0  0  0
  146.6200  154.0680  135.9310 C   0  0  0  0  0  0  0  0  0  0  0  0
  147.5440  154.6850  135.3370 O   0  0  0  0  0  0  0  0  0  0  0  0
  146.9320  153.0090  136.7730 O   0  0  0  0  0  0  0  0  0  0  0  0
  144.8900  153.0660  133.6860 C   0  0  0  0  0  0  0  0  0  0  0  0
  143.8970  152.2910  133.7260 O   0  0  0  0  0  0  0  0  0  0  0  0
  146.1010  152.6260  132.9590 C   0  0  0  0  0  0  0  0  0  0  0  0
  146.0540  151.6150  132.2090 O   0  0  0  0  0  0  0  0  0  0  0  0
  147.3380  153.3370  133.1240 N   0  0  0  0  0  0  0  0  0  0  0  0
  148.5570  152.9670  132.3950 C   0  0  2  0  0  0  0  0  0  0  0  0
  149.0760  151.6200  132.9100 C   0  0  0  0  0  0  0  0  0  0  0  0
  149.6190  154.0690  132.5480 C   0  0  0  0  0  0  0  0  0  0  0  0
  149.0130  155.3290  132.6610 O   0  0  0  0  0  0  0  0  0  0  0  0
  144.3180  158.6060  133.4620 C   0  0  0  0  0  0  0  0  0  0  0  0
  142.9930  158.1820  133.3250 C   0  0  0  0  0  0  0  0  0  0  0  0
  140.0742  158.6011  134.3127 H   0  0  0  0  0  0  0  0  0  0  0  0
  139.9896  159.5107  132.7661 H   0  0  0  0  0  0  0  0  0  0  0  0
  140.4801  157.7827  132.7661 H   0  0  0  0  0  0  0  0  0  0  0  0
  141.4926  161.2390  133.8281 H   0  0  0  0  0  0  0  0  0  0  0  0
  143.9021  161.9485  134.0122 H   0  0  0  0  0  0  0  0  0  0  0  0
  146.5831  160.9545  133.8775 H   0  0  0  0  0  0  0  0  0  0  0  0
  148.0650  156.4370  134.2530 H   0  0  0  0  0  0  0  0  0  0  0  0
  143.6767  156.1364  134.2403 H   0  0  0  0  0  0  0  0  0  0  0  0
  143.8651  155.2429  132.6737 H   0  0  0  0  0  0  0  0  0  0  0  0
  145.0797  155.5303  136.0528 H   0  0  0  0  0  0  0  0  0  0  0  0
  144.5528  153.8262  136.3411 H   0  0  0  0  0  0  0  0  0  0  0  0
  147.3550  154.1810  133.7420 H   0  0  0  0  0  0  0  0  0  0  0  0
  148.3288  152.8639  131.3239 H   0  0  0  0  0  0  0  0  0  0  0  0
  149.0749  151.6229  134.0100 H   0  0  0  0  0  0  0  0  0  0  0  0
  148.4247  150.8122  132.5448 H   0  0  0  0  0  0  0  0  0  0  0  0
  150.1009  151.4581  132.5448 H   0  0  0  0  0  0  0  0  0  0  0  0
  150.2155  153.8728  133.4512 H   0  0  0  0  0  0  0  0  0  0  0  0
  150.2637  154.0652  131.6567 H   0  0  0  0  0  0  0  0  0  0  0  0
  148.5280  155.3410  133.5290 H   0  0  0  0  0  0  0  0  0  0  0  0
  142.7568  157.1313  133.1008 H   0  0  0  0  0  0  0  0  0  0  0  0
  1  2  1  0
  2  3  2  0
  3  4  1  0
  4  5  2  0
  5  6  1  0
  6  7  2  0
  7  8  1  0
  8  9  1  0
  8 10  2  0
  7 11  1  0
 11 12  1  0
 12 13  2  0
 12 14  1  0
 14 15  1  0
 15 16  1  0
 16 17  1  0
 17 18  2  0
 17 19  1  0
 15 20  1  0
 20 21  2  0
 20 22  1  0
 22 23  2  0
 22 24  1  0
 24 25  1  0
 25 26  1  0
 25 27  1  0
 27 28  1  0
 11 29  1  0
 29 30  2  0
 30  2  1  0
 29  5  1  0
  1 31  1  0
  1 32  1  0
  1 33  1  0
  3 34  1  0
  4 35  1  0
  6 36  1  0
  9 37  1  0
 14 38  1  0
 14 39  1  0
 16 40  1  0
 16 41  1  0
 24 42  1  0
 25 43  1  6
 26 44  1  0
 26 45  1  0
 26 46  1  0
 27 47  1  0
 27 48  1  0
 28 49  1  0
 30 50  1  0
M  CHG  2   9  -1  19  -1
M  END
>  <UniqueID>  (15) 
15

>  <SMILES>  (15) 
Cc1ccc2cc(C([NH-])=O)n(C(=O)CN(CC(=O)[O-])C(=O)C(=O)N[C@H](C)CO)c2c1

>  <Energy>  (15) 
81.1477813426495

>  <Genealogy>  (15) 
Cc1ccc2cc(C([NH-])=O)n(C(=O)CN(CC(=O)[O-])C(=O)C(=O)NC(C)CO)c2c1 (protonated)
Cc1ccc2cc(C([NH-])=O)n(C(=O)CN(CC(=O)[O-])C(=O)C(=O)N[C@H](C)CO)c2c1 (chirality)
Cc1ccc2cc(C([NH-])=O)n(C(=O)CN(CC(=O)[O-])C(=O)C(=O)N[C@H](C)CO)c2c1 (3D coordinates assigned)
Cc1ccc2cc(C([NH-])=O)n(C(=O)CN(CC(=O)[O-])C(=O)C(=O)N[C@H](C)CO)c2c1 (optimized conformer: 81.1477813426495 kcal/mol)

>  <smiles>  (15) 
Cc1ccc2cc(C(N)=O)n(C(=O)CN(CC(=O)O)C(=O)C(=O)NC(C)CO)c2c1

>  <score_type>  (15) 
oracle

>  <origin>  (15) 
adg

>  <m_score__min__energy>  (15) 
-6.8099999999999996

>  <m_primary>  (15) 
energy

$$$$
16:0
     RDKit          3D

 44 47  0  0  0  0  0  0  0  0999 V2000
  139.9830  148.1960  130.3600 C   0  0  0  0  0  0  0  0  0  0  0  0
  139.6770  148.6580  131.7250 N   0  0  0  0  0  0  0  0  0  0  0  0
  140.9070  148.7520  132.5330 C   0  0  0  0  0  0  0  0  0  0  0  0
  141.3580  150.2100  132.5760 C   0  0  0  0  0  0  0  0  0  0  0  0
  140.2330  150.9970  131.9200 C   0  0  2  0  0  0  0  0  0  0  0  0
  139.8310  152.1960  132.6740 N   0  0  0  0  0  0  0  0  0  0  0  0
  140.6420  153.3390  133.0350 C   0  0  0  0  0  0  0  0  0  0  0  0
  142.0160  153.2300  133.3880 C   0  0  0  0  0  0  0  0  0  0  0  0
  142.7690  154.3680  133.7240 C   0  0  0  0  0  0  0  0  0  0  0  0
  142.1310  155.6020  133.7040 C   0  0  0  0  0  0  0  0  0  0  0  0
  142.6210  156.8610  133.9730 C   0  0  0  0  0  0  0  0  0  0  0  0
  141.5410  157.7230  133.7960 C   0  0  0  0  0  0  0  0  0  0  0  0
  141.5970  159.1760  134.0600 C   0  0  0  0  0  0  0  0  0  0  0  0
  142.0520  160.0660  133.0440 N   0  0  0  0  0  0  0  0  0  0  0  0
  141.2680  159.6380  135.1840 O   0  0  0  0  0  0  0  0  0  0  0  0
  140.4330  157.0240  133.4210 N   0  0  0  0  0  0  0  0  0  0  0  0
  139.1310  157.5340  133.0980 C   0  0  0  0  0  0  0  0  0  0  0  0
  138.1250  157.1210  133.7340 O   0  0  0  0  0  0  0  0  0  0  0  0
  138.9560  158.4970  132.0000 C   0  0  0  0  0  0  0  0  0  0  0  0
  137.7590  159.0250  131.5630 C   0  0  0  0  0  0  0  0  0  0  0  0
  138.1170  159.8520  130.5220 C   0  0  0  0  0  0  0  0  0  0  0  0
  139.4520  159.8090  130.3530 N   0  0  0  0  0  0  0  0  0  0  0  0
  139.9650  158.9830  131.2520 N   0  0  0  0  0  0  0  0  0  0  0  0
  140.8090  155.7290  133.3770 C   0  0  0  0  0  0  0  0  0  0  0  0
  140.0370  154.6180  133.0290 C   0  0  0  0  0  0  0  0  0  0  0  0
  139.0950  150.0090  131.7000 C   0  0  0  0  0  0  0  0  0  0  0  0
  140.5898  147.2799  130.4104 H   0  0  0  0  0  0  0  0  0  0  0  0
  139.0451  147.9856  129.8252 H   0  0  0  0  0  0  0  0  0  0  0  0
  140.5427  148.9775  129.8252 H   0  0  0  0  0  0  0  0  0  0  0  0
  140.7061  148.3970  133.5546 H   0  0  0  0  0  0  0  0  0  0  0  0
  141.6962  148.1300  132.0855 H   0  0  0  0  0  0  0  0  0  0  0  0
  141.5025  150.5382  133.6159 H   0  0  0  0  0  0  0  0  0  0  0  0
  142.3179  150.3581  132.0595 H   0  0  0  0  0  0  0  0  0  0  0  0
  140.5700  151.4188  130.9616 H   0  0  0  0  0  0  0  0  0  0  0  0
  138.8320  152.2110  132.9820 H   0  0  0  0  0  0  0  0  0  0  0  0
  142.4960  152.2403  133.3981 H   0  0  0  0  0  0  0  0  0  0  0  0
  143.8319  154.2842  133.9948 H   0  0  0  0  0  0  0  0  0  0  0  0
  143.6470  157.1288  134.2654 H   0  0  0  0  0  0  0  0  0  0  0  0
  141.7580  159.9410  132.0500 H   0  0  0  0  0  0  0  0  0  0  0  0
  136.7502  158.8301  131.9559 H   0  0  0  0  0  0  0  0  0  0  0  0
  137.4200  160.4547  129.9212 H   0  0  0  0  0  0  0  0  0  0  0  0
  138.9781  154.7354  132.7553 H   0  0  0  0  0  0  0  0  0  0  0  0
  138.3475  150.1116  132.5004 H   0  0  0  0  0  0  0  0  0  0  0  0
  138.5944  150.1995  130.7392 H   0  0  0  0  0  0  0  0  0  0  0  0
  1  2  1  0
  2  3  1  0
  3  4  1  0
  4  5  1  0
  5  6  1  0
  6  7  1  0
  7  8  2  0
  8  9  1  0
  9 10  2  0
 10 11  1  0
 11 12  2  0
 12 13  1  0
 13 14  1  0
 13 15  2  0
 12 16  1  0
 16 17  1  0
 17 18  2  0
 17 19  1  0
 19 20  2  0
 20 21  1  0
 21 22  2  0
 22 23  1  0
 16 24  1  0
 24 25  2  0
  5 26  1  0
 26  2  1  0
 25  7  1  0
 24 10  1  0
 23 19  1  0
  1 27  1  0
  1 28  1  0
  1 29  1  0
  3 30  1  0
  3 31  1  0
  4 32  1  0
  4 33  1  0
  5 34  1  6
  6 35  1  0
  8 36  1  0
  9 37  1  0
 11 38  1  0
 14 39  1  0
 20 40  1  0
 21 41  1  0
 25 42  1  0
 26 43  1  0
 26 44  1  0
M  CHG  2  14  -1  23  -1
M  END
>  <UniqueID>  (16) 
16

>  <SMILES>  (16) 
CN1CC[C@H](Nc2ccc3cc(C([NH-])=O)n(C(=O)c4ccn[n-]4)c3c2)C1

>  <Energy>  (16) 
122.4299824624737

>  <Genealogy>  (16) 
CN1CCC(Nc2ccc3cc(C([NH-])=O)n(C(=O)c4ccn[n-]4)c3c2)C1 (protonated)
CN1CC[C@H](Nc2ccc3cc(C([NH-])=O)n(C(=O)c4ccn[n-]4)c3c2)C1 (chirality)
CN1CC[C@H](Nc2ccc3cc(C([NH-])=O)n(C(=O)c4ccn[n-]4)c3c2)C1 (3D coordinates assigned)
CN1CC[C@H](Nc2ccc3cc(C([NH-])=O)n(C(=O)c4ccn[n-]4)c3c2)C1 (nonaromatic ring conformer: 122.4299824624737 kcal/mol)

>  <smiles>  (16) 
CN1CCC(Nc2ccc3cc(C(N)=O)n(C(=O)c4ccn[nH]4)c3c2)C1

>  <score_type>  (16) 
oracle

>  <origin>  (16) 
adg

>  <m_score__min__energy>  (16) 
-8.9100000000000001

>  <m_primary>  (16) 
energy

$$$$
17:0
     RDKit          3D

 69 70  0  0  0  0  0  0  0  0999 V2000
  142.2130  153.9730  136.3680 C   0  0  0  0  0  0  0  0  0  0  0  0
  142.4720  155.1370  135.5030 N   0  0  0  0  0  0  0  0  0  0  0  0
  141.6840  155.0090  134.2660 C   0  0  0  0  0  0  0  0  0  0  0  0
  142.1300  156.3990  136.1980 C   0  0  0  0  0  0  0  0  0  0  0  0
  141.2460  156.1270  137.4130 C   0  0  0  0  0  0  0  0  0  0  0  0
  140.1800  157.0710  137.4410 O   0  0  0  0  0  0  0  0  0  0  0  0
  140.2390  158.2970  136.7760 C   0  0  0  0  0  0  0  0  0  0  0  0
  140.9700  159.2300  137.2100 O   0  0  0  0  0  0  0  0  0  0  0  0
  139.4640  158.4820  135.5900 N   0  0  0  0  0  0  0  0  0  0  0  0
  139.6830  157.7080  134.3720 C   0  0  0  0  0  0  0  0  0  0  0  0
  139.6670  158.6310  133.1520 C   0  0  0  0  0  0  0  0  0  0  0  0
  140.7790  159.6870  133.2190 C   0  0  0  0  0  0  0  0  0  0  0  0
  141.8080  159.2900  134.1820 N   0  0  0  0  0  0  0  0  0  0  0  0
  143.2250  159.2870  133.9180 C   0  0  0  0  0  0  0  0  0  0  0  0
  143.9740  160.4920  133.8190 C   0  0  0  0  0  0  0  0  0  0  0  0
  145.3540  160.4590  133.5510 C   0  0  0  0  0  0  0  0  0  0  0  0
  145.9600  159.2160  133.3940 C   0  0  0  0  0  0  0  0  0  0  0  0
  147.2670  158.8970  133.1060 C   0  0  0  0  0  0  0  0  0  0  0  0
  147.3040  157.5040  133.0460 C   0  0  0  0  0  0  0  0  0  0  0  0
  148.5420  156.7290  132.8020 C   0  0  0  0  0  0  0  0  0  0  0  0
  148.6410  155.3560  133.1730 N   0  0  0  0  0  0  0  0  0  0  0  0
  149.5370  157.2960  132.2780 O   0  0  0  0  0  0  0  0  0  0  0  0
  146.0670  156.9860  133.2920 N   0  0  0  0  0  0  0  0  0  0  0  0
  145.6710  155.6070  133.2910 C   0  0  0  0  0  0  0  0  0  0  0  0
  145.6350  154.9660  132.2070 O   0  0  0  0  0  0  0  0  0  0  0  0
  145.3380  154.9070  134.5750 C   0  0  0  0  0  0  0  0  0  0  0  0
  146.3580  153.9690  134.9040 O   0  0  0  0  0  0  0  0  0  0  0  0
  147.2350  154.1360  135.9820 C   0  0  0  0  0  0  0  0  0  0  0  0
  148.0450  155.1020  136.0000 O   0  0  0  0  0  0  0  0  0  0  0  0
  147.1880  153.2100  137.0330 O   0  0  0  0  0  0  0  0  0  0  0  0
  148.3170  152.5940  137.6730 C   0  0  0  0  0  0  0  0  0  0  0  0
  147.8490  151.5750  138.7320 C   0  0  0  0  0  0  0  0  0  0  0  0
  149.2300  151.9150  136.6330 C   0  0  0  0  0  0  0  0  0  0  0  0
  149.1080  153.7110  138.3730 C   0  0  0  0  0  0  0  0  0  0  0  0
  145.2570  158.0470  133.4970 C   0  0  0  0  0  0  0  0  0  0  0  0
  143.8800  158.0480  133.7410 C   0  0  0  0  0  0  0  0  0  0  0  0
  142.2808  154.2777  137.4228 H   0  0  0  0  0  0  0  0  0  0  0  0
  141.2057  153.5812  136.1636 H   0  0  0  0  0  0  0  0  0  0  0  0
  142.9591  153.1910  136.1636 H   0  0  0  0  0  0  0  0  0  0  0  0
  140.6276  154.8374  134.5203 H   0  0  0  0  0  0  0  0  0  0  0  0
  141.7738  155.9335  133.6767 H   0  0  0  0  0  0  0  0  0  0  0  0
  142.0618  154.1605  133.6767 H   0  0  0  0  0  0  0  0  0  0  0  0
  143.0566  156.8908  136.5291 H   0  0  0  0  0  0  0  0  0  0  0  0
  141.5802  157.0478  135.5003 H   0  0  0  0  0  0  0  0  0  0  0  0
  140.8338  155.1093  137.3469 H   0  0  0  0  0  0  0  0  0  0  0  0
  141.8440  156.2195  138.3316 H   0  0  0  0  0  0  0  0  0  0  0  0
  140.6580  157.2023  134.4328 H   0  0  0  0  0  0  0  0  0  0  0  0
  138.8803  156.9628  134.2700 H   0  0  0  0  0  0  0  0  0  0  0  0
  139.8068  158.0243  132.2451 H   0  0  0  0  0  0  0  0  0  0  0  0
  138.6999  159.1548  133.1333 H   0  0  0  0  0  0  0  0  0  0  0  0
  141.2365  159.7941  132.2244 H   0  0  0  0  0  0  0  0  0  0  0  0
  140.3414  160.6435  133.5410 H   0  0  0  0  0  0  0  0  0  0  0  0
  141.4800  158.9920  135.1300 H   0  0  0  0  0  0  0  0  0  0  0  0
  143.4686  161.4597  133.9535 H   0  0  0  0  0  0  0  0  0  0  0  0
  145.9372  161.3880  133.4679 H   0  0  0  0  0  0  0  0  0  0  0  0
  148.1052  159.5931  132.9550 H   0  0  0  0  0  0  0  0  0  0  0  0
  147.9680  154.9330  133.8490 H   0  0  0  0  0  0  0  0  0  0  0  0
  145.2535  155.6496  135.3821 H   0  0  0  0  0  0  0  0  0  0  0  0
  144.3844  154.3721  134.4547 H   0  0  0  0  0  0  0  0  0  0  0  0
  148.0349  151.9798  139.7377 H   0  0  0  0  0  0  0  0  0  0  0  0
  146.7730  151.3841  138.6068 H   0  0  0  0  0  0  0  0  0  0  0  0
  148.4053  150.6343  138.6068 H   0  0  0  0  0  0  0  0  0  0  0  0
  150.0086  151.3359  137.1511 H   0  0  0  0  0  0  0  0  0  0  0  0
  148.6305  151.2416  136.0029 H   0  0  0  0  0  0  0  0  0  0  0  0
  149.7024  152.6829  136.0029 H   0  0  0  0  0  0  0  0  0  0  0  0
  149.0238  153.5920  139.4633 H   0  0  0  0  0  0  0  0  0  0  0  0
  150.1661  153.6511  138.0783 H   0  0  0  0  0  0  0  0  0  0  0  0
  148.7001  154.6892  138.0783 H   0  0  0  0  0  0  0  0  0  0  0  0
  143.3186  157.1036  133.7940 H   0  0  0  0  0  0  0  0  0  0  0  0
  1  2  1  0
  2  3  1  0
  2  4  1  0
  4  5  1  0
  5  6  1  0
  6  7  1  0
  7  8  2  0
  7  9  1  0
  9 10  1  0
 10 11  1  0
 11 12  1  0
 12 13  1  0
 13 14  1  0
 14 15  2  0
 15 16  1  0
 16 17  2  0
 17 18  1  0
 18 19  2  0
 19 20  1  0
 20 21  1  0
 20 22  2  0
 19 23  1  0
 23 24  1  0
 24 25  2  0
 24 26  1  0
 26 27  1  0
 27 28  1  0
 28 29  2  0
 28 30  1  0
 30 31  1  0
 31 32  1  0
 31 33  1  0
 31 34  1  0
 23 35  1  0
 35 36  2  0
 36 14  1  0
 35 17  1  0
  1 37  1  0
  1 38  1  0
  1 39  1  0
  3 40  1  0
  3 41  1  0
  3 42  1  0
  4 43  1  0
  4 44  1  0
  5 45  1  0
  5 46  1  0
 10 47  1  0
 10 48  1  0
 11 49  1  0
 11 50  1  0
 12 51  1  0
 12 52  1  0
 13 53  1  0
 15 54  1  0
 16 55  1  0
 18 56  1  0
 21 57  1  0
 26 58  1  0
 26 59  1  0
 32 60  1  0
 32 61  1  0
 32 62  1  0
 33 63  1  0
 33 64  1  0
 33 65  1  0
 34 66  1  0
 34 67  1  0
 34 68  1  0
 36 69  1  0
M  CHG  2   9  -1  21  -1
M  END
>  <UniqueID>  (17) 
17

>  <SMILES>  (17) 
CN(C)CCOC(=O)[N-]CCCNc1ccc2cc(C([NH-])=O)n(C(=O)COC(=O)OC(C)(C)C)c2c1

>  <Energy>  (17) 
89.98699509432664

>  <Genealogy>  (17) 
CN(C)CCOC(=O)[N-]CCCNc1ccc2cc(C([NH-])=O)n(C(=O)COC(=O)OC(C)(C)C)c2c1 (protonated)
CN(C)CCOC(=O)[N-]CCCNc1ccc2cc(C([NH-])=O)n(C(=O)COC(=O)OC(C)(C)C)c2c1 (3D coordinates assigned)
CN(C)CCOC(=O)[N-]CCCNc1ccc2cc(C([NH-])=O)n(C(=O)COC(=O)OC(C)(C)C)c2c1 (optimized conformer: 89.98699509432664 kcal/mol)

>  <smiles>  (17) 
CN(C)CCOC(=O)NCCCNc1ccc2cc(C(N)=O)n(C(=O)COC(=O)OC(C)(C)C)c2c1

>  <score_type>  (17) 
oracle

>  <origin>  (17) 
adg

>  <m_score__min__energy>  (17) 
-8.2799999999999994

>  <m_primary>  (17) 
energy

$$$$
18:0
     RDKit          3D

 44 45  0  0  0  0  0  0  0  0999 V2000
  140.9910  155.2910  134.5120 C   0  0  0  0  0  0  0  0  0  0  0  0
  140.8740  156.4050  133.5610 N   0  0  0  0  0  0  0  0  0  0  0  0
  139.5400  156.7340  133.0130 C   0  0  0  0  0  0  0  0  0  0  0  0
  139.3390  158.2510  132.7710 C   0  0  1  0  0  0  0  0  0  0  0  0
  140.2420  159.0170  133.5290 O   0  0  0  0  0  0  0  0  0  0  0  0
  139.3790  158.6500  131.2830 C   0  0  0  0  0  0  0  0  0  0  0  0
  140.5480  159.3690  130.9910 O   0  0  0  0  0  0  0  0  0  0  0  0
  142.0720  157.1690  133.2780 C   0  0  0  0  0  0  0  0  0  0  0  0
  142.3150  157.5000  132.0850 O   0  0  0  0  0  0  0  0  0  0  0  0
  143.0070  157.6410  134.3260 C   0  0  0  0  0  0  0  0  0  0  0  0
  142.6570  157.6460  135.5350 O   0  0  0  0  0  0  0  0  0  0  0  0
  144.3030  158.1580  133.9700 N   0  0  0  0  0  0  0  0  0  0  0  0
  144.6210  159.4520  133.6780 C   0  0  0  0  0  0  0  0  0  0  0  0
  143.6590  160.5560  133.4810 C   0  0  0  0  0  0  0  0  0  0  0  0
  142.3400  160.2750  133.0170 N   0  0  0  0  0  0  0  0  0  0  0  0
  143.9770  161.7450  133.7500 O   0  0  0  0  0  0  0  0  0  0  0  0
  145.9980  159.5950  133.5170 C   0  0  0  0  0  0  0  0  0  0  0  0
  146.5210  158.3400  133.7180 C   0  0  0  0  0  0  0  0  0  0  0  0
  147.8460  157.9130  133.7030 C   0  0  0  0  0  0  0  0  0  0  0  0
  148.1040  156.5600  133.9810 C   0  0  0  0  0  0  0  0  0  0  0  0
  147.0420  155.6650  134.2570 C   0  0  0  0  0  0  0  0  0  0  0  0
  147.3280  154.2260  134.5860 C   0  0  0  0  0  0  0  0  0  0  0  0
  147.5420  154.0670  136.0560 C   0  0  0  0  0  0  0  0  0  0  0  0
  148.2750  154.8790  136.6810 O   0  0  0  0  0  0  0  0  0  0  0  0
  146.9690  152.9970  136.7300 O   0  0  0  0  0  0  0  0  0  0  0  0
  145.7120  156.1380  134.2730 C   0  0  0  0  0  0  0  0  0  0  0  0
  145.4800  157.4890  133.9880 C   0  0  0  0  0  0  0  0  0  0  0  0
  140.9501  155.6806  135.5399 H   0  0  0  0  0  0  0  0  0  0  0  0
  140.1620  154.5854  134.3540 H   0  0  0  0  0  0  0  0  0  0  0  0
  141.9485  154.7731  134.3540 H   0  0  0  0  0  0  0  0  0  0  0  0
  139.4154  156.2073  132.0554 H   0  0  0  0  0  0  0  0  0  0  0  0
  138.7933  156.4190  133.7568 H   0  0  0  0  0  0  0  0  0  0  0  0
  138.3190  158.4753  133.1164 H   0  0  0  0  0  0  0  0  0  0  0  0
  141.0890  159.0870  133.0170 H   0  0  0  0  0  0  0  0  0  0  0  0
  139.3512  157.7405  130.6649 H   0  0  0  0  0  0  0  0  0  0  0  0
  138.5094  159.2876  131.0655 H   0  0  0  0  0  0  0  0  0  0  0  0
  141.2480  159.0380  131.6120 H   0  0  0  0  0  0  0  0  0  0  0  0
  142.1470  159.4390  132.4210 H   0  0  0  0  0  0  0  0  0  0  0  0
  146.5493  160.5168  133.2795 H   0  0  0  0  0  0  0  0  0  0  0  0
  148.6651  158.6127  133.4805 H   0  0  0  0  0  0  0  0  0  0  0  0
  149.1408  156.1926  133.9843 H   0  0  0  0  0  0  0  0  0  0  0  0
  146.4754  153.6052  134.2734 H   0  0  0  0  0  0  0  0  0  0  0  0
  148.2372  153.9094  134.0540 H   0  0  0  0  0  0  0  0  0  0  0  0
  144.8768  155.4605  134.5041 H   0  0  0  0  0  0  0  0  0  0  0  0
  1  2  1  0
  2  3  1  0
  3  4  1  0
  4  5  1  0
  4  6  1  0
  6  7  1  0
  2  8  1  0
  8  9  2  0
  8 10  1  0
 10 11  2  0
 10 12  1  0
 12 13  1  0
 13 14  1  0
 14 15  1  0
 14 16  2  0
 13 17  2  0
 17 18  1  0
 18 19  2  0
 19 20  1  0
 20 21  2  0
 21 22  1  0
 22 23  1  0
 23 24  2  0
 23 25  1  0
 21 26  1  0
 26 27  2  0
 27 12  1  0
 27 18  1  0
  1 28  1  0
  1 29  1  0
  1 30  1  0
  3 31  1  0
  3 32  1  0
  4 33  1  1
  5 34  1  0
  6 35  1  0
  6 36  1  0
  7 37  1  0
 15 38  1  0
 17 39  1  0
 19 40  1  0
 20 41  1  0
 22 42  1  0
 22 43  1  0
 26 44  1  0
M  CHG  2  15  -1  25  -1
M  END
>  <UniqueID>  (18) 
18

>  <SMILES>  (18) 
CN(C[C@@H](O)CO)C(=O)C(=O)n1c(C([NH-])=O)cc2ccc(CC(=O)[O-])cc21

>  <Energy>  (18) 
83.42831007986675

>  <Genealogy>  (18) 
CN(C[C@@H](O)CO)C(=O)C(=O)n1c(C([NH-])=O)cc2ccc(CC(=O)[O-])cc21 (protonated)
CN(C[C@@H](O)CO)C(=O)C(=O)n1c(C([NH-])=O)cc2ccc(CC(=O)[O-])cc21 (3D coordinates assigned)
CN(C[C@@H](O)CO)C(=O)C(=O)n1c(C([NH-])=O)cc2ccc(CC(=O)[O-])cc21 (optimized conformer: 83.42831007986675 kcal/mol)

>  <smiles>  (18) 
CN(C[C@@H](O)CO)C(=O)C(=O)n1c(C(N)=O)cc2ccc(CC(=O)O)cc21

>  <score_type>  (18) 
oracle

>  <origin>  (18) 
adg

>  <m_score__min__energy>  (18) 
-5.96

>  <m_primary>  (18) 
energy

$$$$
19:0
     RDKit          3D

 28 29  0  0  0  0  0  0  0  0999 V2000
  147.5910  154.9650  132.6610 C   0  0  0  0  0  0  0  0  0  0  0  0
  147.4750  156.4450  132.8690 C   0  0  0  0  0  0  0  0  0  0  0  0
  148.6010  157.2820  132.6640 C   0  0  0  0  0  0  0  0  0  0  0  0
  148.4960  158.6750  132.8300 C   0  0  0  0  0  0  0  0  0  0  0  0
  147.2560  159.1980  133.1830 C   0  0  0  0  0  0  0  0  0  0  0  0
  146.8750  160.5010  133.4190 C   0  0  0  0  0  0  0  0  0  0  0  0
  145.5180  160.4370  133.7360 C   0  0  0  0  0  0  0  0  0  0  0  0
  144.6750  161.6210  133.9980 C   0  0  0  0  0  0  0  0  0  0  0  0
  143.2750  161.5700  133.7290 N   0  0  0  0  0  0  0  0  0  0  0  0
  145.1730  162.6720  134.4770 O   0  0  0  0  0  0  0  0  0  0  0  0
  145.0830  159.1460  133.7020 N   0  0  0  0  0  0  0  0  0  0  0  0
  143.7780  158.6450  134.0200 C   0  0  0  0  0  0  0  0  0  0  0  0
  143.2330  158.9700  135.1080 O   0  0  0  0  0  0  0  0  0  0  0  0
  143.0110  157.8400  133.0190 C   0  0  0  0  0  0  0  0  0  0  0  0
  141.2450  158.4230  132.9770 P   0  0  0  0  0  0  0  0  0  0  0  0
  140.9290  159.9420  132.9870 O   0  0  0  0  0  0  0  0  0  0  0  0
  146.1550  158.4020  133.3590 C   0  0  0  0  0  0  0  0  0  0  0  0
  146.2290  157.0140  133.2110 C   0  0  0  0  0  0  0  0  0  0  0  0
  147.6306  154.4595  133.6372 H   0  0  0  0  0  0  0  0  0  0  0  0
  146.7184  154.6045  132.0966 H   0  0  0  0  0  0  0  0  0  0  0  0
  148.5092  154.7449  132.0966 H   0  0  0  0  0  0  0  0  0  0  0  0
  149.5646  156.8385  132.3728 H   0  0  0  0  0  0  0  0  0  0  0  0
  149.3674  159.3305  132.6852 H   0  0  0  0  0  0  0  0  0  0  0  0
  147.5065  161.4003  133.3683 H   0  0  0  0  0  0  0  0  0  0  0  0
  142.7250  160.7020  133.9140 H   0  0  0  0  0  0  0  0  0  0  0  0
  143.4625  157.9658  132.0238 H   0  0  0  0  0  0  0  0  0  0  0  0
  143.0399  156.7777  133.3030 H   0  0  0  0  0  0  0  0  0  0  0  0
  145.3405  156.3822  133.3570 H   0  0  0  0  0  0  0  0  0  0  0  0
  1  2  1  0
  2  3  2  0
  3  4  1  0
  4  5  2  0
  5  6  1  0
  6  7  2  0
  7  8  1  0
  8  9  1  0
  8 10  2  0
  7 11  1  0
 11 12  1  0
 12 13  2  0
 12 14  1  0
 14 15  1  0
 15 16  2  0
 11 17  1  0
 17 18  2  0
 18  2  1  0
 17  5  1  0
  1 19  1  0
  1 20  1  0
  1 21  1  0
  3 22  1  0
  4 23  1  0
  6 24  1  0
  9 25  1  0
 14 26  1  0
 14 27  1  0
 18 28  1  0
M  CHG  1   9  -1
M  END
>  <UniqueID>  (19) 
19

>  <SMILES>  (19) 
Cc1ccc2cc(C([NH-])=O)n(C(=O)CP=O)c2c1

>  <Energy>  (19) 
64.11005740639457

>  <Genealogy>  (19) 
Cc1ccc2cc(C([NH-])=O)n(C(=O)CP=O)c2c1 (protonated)
Cc1ccc2cc(C([NH-])=O)n(C(=O)CP=O)c2c1 (3D coordinates assigned)
Cc1ccc2cc(C([NH-])=O)n(C(=O)CP=O)c2c1 (optimized conformer: 64.11005740639457 kcal/mol)

>  <smiles>  (19) 
Cc1ccc2cc(C(N)=O)n(C(=O)CP=O)c2c1

>  <score_type>  (19) 
oracle

>  <origin>  (19) 
adg

>  <m_score__min__energy>  (19) 
-5.8399999999999999

>  <m_primary>  (19) 
energy

$$$$
20:0
     RDKit          3D

 36 37  0  0  0  0  0  0  0  0999 V2000
  149.5840  162.1480  130.1530 C   0  0  0  0  0  0  0  0  0  0  0  0
  148.6130  161.1490  130.3690 O   0  0  0  0  0  0  0  0  0  0  0  0
  148.9720  160.3850  131.5010 C   0  0  0  0  0  0  0  0  0  0  0  0
  149.2270  158.9400  131.0750 C   0  0  0  0  0  0  0  0  0  0  0  0
  148.7090  158.0270  132.0400 O   0  0  0  0  0  0  0  0  0  0  0  0
  148.0860  158.4320  133.2270 C   0  0  0  0  0  0  0  0  0  0  0  0
  148.7640  158.9350  134.1640 O   0  0  0  0  0  0  0  0  0  0  0  0
  146.6660  158.2750  133.3760 N   0  0  0  0  0  0  0  0  0  0  0  0
  145.9390  157.1320  133.2260 C   0  0  0  0  0  0  0  0  0  0  0  0
  146.4920  155.7760  133.0340 C   0  0  0  0  0  0  0  0  0  0  0  0
  147.3570  155.4770  131.9380 N   0  0  0  0  0  0  0  0  0  0  0  0
  146.2380  154.8790  133.8820 O   0  0  0  0  0  0  0  0  0  0  0  0
  144.5780  157.3980  133.3320 C   0  0  0  0  0  0  0  0  0  0  0  0
  144.4890  158.7500  133.5720 C   0  0  0  0  0  0  0  0  0  0  0  0
  143.3690  159.5580  133.7440 C   0  0  0  0  0  0  0  0  0  0  0  0
  143.5720  160.9340  133.9360 C   0  0  0  0  0  0  0  0  0  0  0  0
  144.8810  161.4740  133.9570 C   0  0  0  0  0  0  0  0  0  0  0  0
  145.0820  162.9530  134.1110 C   0  0  0  0  0  0  0  0  0  0  0  0
  144.0450  163.6260  133.4910 F   0  0  0  0  0  0  0  0  0  0  0  0
  145.9950  160.6270  133.7630 C   0  0  0  0  0  0  0  0  0  0  0  0
  145.7650  159.2580  133.5930 C   0  0  0  0  0  0  0  0  0  0  0  0
  149.9473  162.5218  131.1217 H   0  0  0  0  0  0  0  0  0  0  0  0
  150.4252  161.7249  129.5844 H   0  0  0  0  0  0  0  0  0  0  0  0
  149.1371  162.9768  129.5844 H   0  0  0  0  0  0  0  0  0  0  0  0
  149.8850  160.8019  131.9512 H   0  0  0  0  0  0  0  0  0  0  0  0
  148.1562  160.4132  132.2383 H   0  0  0  0  0  0  0  0  0  0  0  0
  148.7369  158.7579  130.1072 H   0  0  0  0  0  0  0  0  0  0  0  0
  150.3127  158.7844  130.9907 H   0  0  0  0  0  0  0  0  0  0  0  0
  147.7280  156.2330  131.3220 H   0  0  0  0  0  0  0  0  0  0  0  0
  147.7030  154.5020  131.7940 H   0  0  0  0  0  0  0  0  0  0  0  0
  143.7491  156.6803  133.2429 H   0  0  0  0  0  0  0  0  0  0  0  0
  142.3552  159.1315  133.7300 H   0  0  0  0  0  0  0  0  0  0  0  0
  142.7061  161.5988  134.0714 H   0  0  0  0  0  0  0  0  0  0  0  0
  145.0995  163.2113  135.1801 H   0  0  0  0  0  0  0  0  0  0  0  0
  146.0365  163.2436  133.6479 H   0  0  0  0  0  0  0  0  0  0  0  0
  147.0169  161.0338  133.7461 H   0  0  0  0  0  0  0  0  0  0  0  0
  1  2  1  0
  2  3  1  0
  3  4  1  0
  4  5  1  0
  5  6  1  0
  6  7  2  0
  6  8  1  0
  8  9  1  0
  9 10  1  0
 10 11  1  0
 10 12  2  0
  9 13  2  0
 13 14  1  0
 14 15  2  0
 15 16  1  0
 16 17  2  0
 17 18  1  0
 18 19  1  0
 17 20  1  0
 20 21  2  0
 21  8  1  0
 21 14  1  0
  1 22  1  0
  1 23  1  0
  1 24  1  0
  3 25  1  0
  3 26  1  0
  4 27  1  0
  4 28  1  0
 11 29  1  0
 11 30  1  0
 13 31  1  0
 15 32  1  0
 16 33  1  0
 18 34  1  0
 18 35  1  0
 20 36  1  0
M  END
>  <UniqueID>  (20) 
20

>  <SMILES>  (20) 
COCCOC(=O)n1c(C(N)=O)cc2ccc(CF)cc21

>  <Energy>  (20) 
71.3907441495366

>  <Genealogy>  (20) 
COCCOC(=O)n1c(C(N)=O)cc2ccc(CF)cc21 (3D coordinates assigned)
COCCOC(=O)n1c(C(N)=O)cc2ccc(CF)cc21 (optimized conformer: 71.3907441495366 kcal/mol)

>  <smiles>  (20) 
COCCOC(=O)n1c(C(N)=O)cc2ccc(CF)cc21

>  <score_type>  (20) 
oracle

>  <origin>  (20) 
adg

>  <m_score__min__energy>  (20) 
-5.9000000000000004

>  <m_primary>  (20) 
energy

$$$$
21:0
     RDKit          3D

 42 43  0  0  0  0  0  0  0  0999 V2000
  145.5150  154.8020  134.9640 C   0  0  0  0  0  0  0  0  0  0  0  0
  146.9640  154.9830  135.0520 N   0  0  0  0  0  0  0  0  0  0  0  0
  147.7280  153.9720  135.5520 O   0  0  0  0  0  0  0  0  0  0  0  0
  148.1070  154.3510  136.8560 C   0  0  0  0  0  0  0  0  0  0  0  0
  147.2780  153.5990  137.8400 C   0  0  0  0  0  0  0  0  0  0  0  0
  146.6330  152.5800  137.4790 O   0  0  0  0  0  0  0  0  0  0  0  0
  147.2600  153.9870  139.1740 O   0  0  0  0  0  0  0  0  0  0  0  0
  147.5750  156.1860  134.5450 C   0  0  0  0  0  0  0  0  0  0  0  0
  148.4820  156.7520  135.2130 O   0  0  0  0  0  0  0  0  0  0  0  0
  147.1680  156.7740  133.2520 C   0  0  0  0  0  0  0  0  0  0  0  0
  147.0890  156.0530  132.2220 O   0  0  0  0  0  0  0  0  0  0  0  0
  146.8520  158.1710  133.1610 N   0  0  0  0  0  0  0  0  0  0  0  0
  147.6750  159.1920  132.7910 C   0  0  0  0  0  0  0  0  0  0  0  0
  149.0550  159.0520  132.2790 C   0  0  0  0  0  0  0  0  0  0  0  0
  149.5730  157.7820  131.8940 N   0  0  0  0  0  0  0  0  0  0  0  0
  149.7800  160.0760  132.1510 O   0  0  0  0  0  0  0  0  0  0  0  0
  147.0140  160.4140  132.9070 C   0  0  0  0  0  0  0  0  0  0  0  0
  145.7520  160.1050  133.3660 C   0  0  0  0  0  0  0  0  0  0  0  0
  144.6840  160.9360  133.6770 C   0  0  0  0  0  0  0  0  0  0  0  0
  143.5060  160.3430  134.1620 C   0  0  0  0  0  0  0  0  0  0  0  0
  143.4090  158.9340  134.3380 C   0  0  0  0  0  0  0  0  0  0  0  0
  142.1890  158.3310  134.8450 N   0  0  0  0  0  0  0  0  0  0  0  0
  141.6860  157.0730  134.2760 C   0  0  0  0  0  0  0  0  0  0  0  0
  141.4360  158.9680  135.9300 C   0  0  0  0  0  0  0  0  0  0  0  0
  144.5310  158.1290  134.0100 C   0  0  0  0  0  0  0  0  0  0  0  0
  145.6820  158.7470  133.5130 C   0  0  0  0  0  0  0  0  0  0  0  0
  145.0899  154.7489  135.9772 H   0  0  0  0  0  0  0  0  0  0  0  0
  145.0714  155.6517  134.4243 H   0  0  0  0  0  0  0  0  0  0  0  0
  145.2941  153.8693  134.4243 H   0  0  0  0  0  0  0  0  0  0  0  0
  149.1701  154.1166  137.0139 H   0  0  0  0  0  0  0  0  0  0  0  0
  147.9521  155.4319  136.9887 H   0  0  0  0  0  0  0  0  0  0  0  0
  148.9410  157.0280  131.5450 H   0  0  0  0  0  0  0  0  0  0  0  0
  147.4149  161.4129  132.6802 H   0  0  0  0  0  0  0  0  0  0  0  0
  144.7579  162.0259  133.5476 H   0  0  0  0  0  0  0  0  0  0  0  0
  142.6435  160.9791  134.4100 H   0  0  0  0  0  0  0  0  0  0  0  0
  141.4114  156.3862  135.0902 H   0  0  0  0  0  0  0  0  0  0  0  0
  140.8011  157.2790  133.6559 H   0  0  0  0  0  0  0  0  0  0  0  0
  142.4690  156.6121  133.6559 H   0  0  0  0  0  0  0  0  0  0  0  0
  141.8336  158.6317  136.8989 H   0  0  0  0  0  0  0  0  0  0  0  0
  141.5348  160.0608  135.8525 H   0  0  0  0  0  0  0  0  0  0  0  0
  140.3747  158.6894  135.8525 H   0  0  0  0  0  0  0  0  0  0  0  0
  144.4954  157.0378  134.1446 H   0  0  0  0  0  0  0  0  0  0  0  0
  1  2  1  0
  2  3  1  0
  3  4  1  0
  4  5  1  0
  5  6  2  0
  5  7  1  0
  2  8  1  0
  8  9  2  0
  8 10  1  0
 10 11  2  0
 10 12  1  0
 12 13  1  0
 13 14  1  0
 14 15  1  0
 14 16  2  0
 13 17  2  0
 17 18  1  0
 18 19  2  0
 19 20  1  0
 20 21  2  0
 21 22  1  0
 22 23  1  0
 22 24  1  0
 21 25  1  0
 25 26  2  0
 26 12  1  0
 26 18  1  0
  1 27  1  0
  1 28  1  0
  1 29  1  0
  4 30  1  0
  4 31  1  0
 15 32  1  0
 17 33  1  0
 19 34  1  0
 20 35  1  0
 23 36  1  0
 23 37  1  0
 23 38  1  0
 24 39  1  0
 24 40  1  0
 24 41  1  0
 25 42  1  0
M  CHG  2   7  -1  15  -1
M  END
>  <UniqueID>  (21) 
21

>  <SMILES>  (21) 
CN(OCC(=O)[O-])C(=O)C(=O)n1c(C([NH-])=O)cc2ccc(N(C)C)cc21

>  <Energy>  (21) 
78.34736773938847

>  <Genealogy>  (21) 
CN(OCC(=O)[O-])C(=O)C(=O)n1c(C([NH-])=O)cc2ccc(N(C)C)cc21 (protonated)
CN(OCC(=O)[O-])C(=O)C(=O)n1c(C([NH-])=O)cc2ccc(N(C)C)cc21 (3D coordinates assigned)
CN(OCC(=O)[O-])C(=O)C(=O)n1c(C([NH-])=O)cc2ccc(N(C)C)cc21 (optimized conformer: 78.34736773938847 kcal/mol)

>  <smiles>  (21) 
CN(OCC(=O)O)C(=O)C(=O)n1c(C(N)=O)cc2ccc(N(C)C)cc21

>  <score_type>  (21) 
oracle

>  <origin>  (21) 
adg

>  <m_score__min__energy>  (21) 
-6.75

>  <m_primary>  (21) 
energy

$$$$
22:0
     RDKit          3D

 65 66  0  0  0  0  0  0  0  0999 V2000
  144.3650  160.0970  133.3490 C   0  0  0  0  0  0  0  0  0  0  0  0
  145.5750  159.2150  133.3090 C   0  0  0  0  0  0  0  0  0  0  0  0
  146.8540  159.7570  133.5900 C   0  0  0  0  0  0  0  0  0  0  0  0
  147.9930  158.9350  133.6010 C   0  0  0  0  0  0  0  0  0  0  0  0
  147.8210  157.5780  133.3350 C   0  0  0  0  0  0  0  0  0  0  0  0
  148.7380  156.5490  133.3320 C   0  0  0  0  0  0  0  0  0  0  0  0
  148.0010  155.4000  133.0460 C   0  0  0  0  0  0  0  0  0  0  0  0
  148.5930  154.0570  132.8940 C   0  0  0  0  0  0  0  0  0  0  0  0
  148.0100  152.9410  133.5650 N   0  0  0  0  0  0  0  0  0  0  0  0
  149.6170  153.8830  132.1800 O   0  0  0  0  0  0  0  0  0  0  0  0
  146.6860  155.7090  132.8810 N   0  0  0  0  0  0  0  0  0  0  0  0
  145.5890  154.8100  132.6580 C   0  0  0  0  0  0  0  0  0  0  0  0
  144.6530  155.1630  131.8860 O   0  0  0  0  0  0  0  0  0  0  0  0
  145.5010  153.5830  133.4130 N   0  0  2  0  0  0  0  0  0  0  0  0
  144.4510  152.7270  132.9170 C   0  0  0  0  0  0  0  0  0  0  0  0
  144.7220  151.5850  132.4440 O   0  0  0  0  0  0  0  0  0  0  0  0
  143.1220  153.1630  132.9820 O   0  0  0  0  0  0  0  0  0  0  0  0
  142.0560  152.3190  133.3960 C   0  0  0  0  0  0  0  0  0  0  0  0
  140.8120  152.9580  133.1410 O   0  0  0  0  0  0  0  0  0  0  0  0
  140.6060  154.3280  133.3310 C   0  0  0  0  0  0  0  0  0  0  0  0
  139.7850  154.9630  132.6120 O   0  0  0  0  0  0  0  0  0  0  0  0
  141.3030  155.0190  134.4660 C   0  0  0  0  0  0  0  0  0  0  0  0
  142.4610  155.8080  133.9930 N   0  0  0  0  0  0  0  0  0  0  0  0
  141.9970  156.8970  133.1170 C   0  0  0  0  0  0  0  0  0  0  0  0
  143.2080  156.3760  135.1320 C   0  0  0  0  0  0  0  0  0  0  0  0
  145.3030  153.8720  134.8100 C   0  0  0  0  0  0  0  0  0  0  0  0
  144.3270  153.3720  135.4370 O   0  0  0  0  0  0  0  0  0  0  0  0
  146.2170  154.6950  135.4750 O   0  0  0  0  0  0  0  0  0  0  0  0
  146.8950  154.2960  136.6610 C   0  0  0  0  0  0  0  0  0  0  0  0
  147.4360  152.9920  136.4860 O   0  0  0  0  0  0  0  0  0  0  0  0
  148.4380  152.4710  137.3150 C   0  0  0  0  0  0  0  0  0  0  0  0
  149.2120  151.5660  136.8920 O   0  0  0  0  0  0  0  0  0  0  0  0
  148.6330  153.0630  138.6830 C   0  0  0  0  0  0  0  0  0  0  0  0
  149.9920  153.7660  138.7550 C   0  0  0  0  0  0  0  0  0  0  0  0
  148.5060  152.0030  139.7850 C   0  0  0  0  0  0  0  0  0  0  0  0
  146.5900  157.0430  133.0610 C   0  0  0  0  0  0  0  0  0  0  0  0
  145.4370  157.8330  133.0540 C   0  0  0  0  0  0  0  0  0  0  0  0
  144.0912  160.2966  134.3955 H   0  0  0  0  0  0  0  0  0  0  0  0
  144.5867  161.0469  132.8404 H   0  0  0  0  0  0  0  0  0  0  0  0
  143.5286  159.5953  132.8404 H   0  0  0  0  0  0  0  0  0  0  0  0
  146.9557  160.8317  133.8015 H   0  0  0  0  0  0  0  0  0  0  0  0
  148.9896  159.3495  133.8130 H   0  0  0  0  0  0  0  0  0  0  0  0
  149.8203  156.6191  133.5159 H   0  0  0  0  0  0  0  0  0  0  0  0
  147.3280  153.0830  134.3410 H   0  0  0  0  0  0  0  0  0  0  0  0
  146.4080  153.0710  133.3160 H   0  0  0  0  0  0  0  0  0  0  0  0
  142.1017  151.3720  132.8382 H   0  0  0  0  0  0  0  0  0  0  0  0
  142.1481  152.1180  134.4735 H   0  0  0  0  0  0  0  0  0  0  0  0
  140.5912  155.6932  134.9648 H   0  0  0  0  0  0  0  0  0  0  0  0
  141.6707  154.2515  135.1629 H   0  0  0  0  0  0  0  0  0  0  0  0
  141.6396  157.7357  133.7325 H   0  0  0  0  0  0  0  0  0  0  0  0
  142.8286  157.2364  132.4821 H   0  0  0  0  0  0  0  0  0  0  0  0
  141.1761  156.5323  132.4821 H   0  0  0  0  0  0  0  0  0  0  0  0
  142.7564  156.0327  136.0745 H   0  0  0  0  0  0  0  0  0  0  0  0
  144.2558  156.0444  135.0853 H   0  0  0  0  0  0  0  0  0  0  0  0
  143.1685  157.4743  135.0853 H   0  0  0  0  0  0  0  0  0  0  0  0
  147.7092  155.0046  136.8732 H   0  0  0  0  0  0  0  0  0  0  0  0
  146.1857  154.2873  137.5018 H   0  0  0  0  0  0  0  0  0  0  0  0
  147.8362  153.8019  138.8539 H   0  0  0  0  0  0  0  0  0  0  0  0
  150.2740  153.9119  139.8082 H   0  0  0  0  0  0  0  0  0  0  0  0
  150.7516  153.1478  138.2543 H   0  0  0  0  0  0  0  0  0  0  0  0
  149.9263  154.7432  138.2543 H   0  0  0  0  0  0  0  0  0  0  0  0
  148.5643  152.4893  140.7700 H   0  0  0  0  0  0  0  0  0  0  0  0
  147.5396  151.4867  139.6876 H   0  0  0  0  0  0  0  0  0  0  0  0
  149.3231  151.2731  139.6876 H   0  0  0  0  0  0  0  0  0  0  0  0
  144.4497  157.3905  132.8554 H   0  0  0  0  0  0  0  0  0  0  0  0
  1  2  1  0
  2  3  2  0
  3  4  1  0
  4  5  2  0
  5  6  1  0
  6  7  2  0
  7  8  1  0
  8  9  1  0
  8 10  2  0
  7 11  1  0
 11 12  1  0
 12 13  2  0
 12 14  1  0
 14 15  1  0
 15 16  2  0
 15 17  1  0
 17 18  1  0
 18 19  1  0
 19 20  1  0
 20 21  2  0
 20 22  1  0
 22 23  1  0
 23 24  1  0
 23 25  1  0
 14 26  1  0
 26 27  2  0
 26 28  1  0
 28 29  1  0
 29 30  1  0
 30 31  1  0
 31 32  2  0
 31 33  1  0
 33 34  1  0
 33 35  1  0
 11 36  1  0
 36 37  2  0
 37  2  1  0
 36  5  1  0
  1 38  1  0
  1 39  1  0
  1 40  1  0
  3 41  1  0
  4 42  1  0
  6 43  1  0
  9 44  1  0
 14 45  1  1
 18 46  1  0
 18 47  1  0
 22 48  1  0
 22 49  1  0
 24 50  1  0
 24 51  1  0
 24 52  1  0
 25 53  1  0
 25 54  1  0
 25 55  1  0
 29 56  1  0
 29 57  1  0
 33 58  1  0
 34 59  1  0
 34 60  1  0
 34 61  1  0
 35 62  1  0
 35 63  1  0
 35 64  1  0
 37 65  1  0
M  CHG  2   9  -1  14   1
M  END
>  <UniqueID>  (22) 
22

>  <SMILES>  (22) 
Cc1ccc2cc(C([NH-])=O)n(C(=O)[NH+](C(=O)OCOC(=O)CN(C)C)C(=O)OCOC(=O)C(C)C)c2c1

>  <Energy>  (22) 
94.69726403645758

>  <Genealogy>  (22) 
Cc1ccc2cc(C([NH-])=O)n(C(=O)[NH+](C(=O)OCOC(=O)CN(C)C)C(=O)OCOC(=O)C(C)C)c2c1 (protonated)
Cc1ccc2cc(C([NH-])=O)n(C(=O)[NH+](C(=O)OCOC(=O)CN(C)C)C(=O)OCOC(=O)C(C)C)c2c1 (3D coordinates assigned)
Cc1ccc2cc(C([NH-])=O)n(C(=O)[NH+](C(=O)OCOC(=O)CN(C)C)C(=O)OCOC(=O)C(C)C)c2c1 (optimized conformer: 94.69726403645758 kcal/mol)

>  <smiles>  (22) 
Cc1ccc2cc(C(N)=O)n(C(=O)N(C(=O)OCOC(=O)CN(C)C)C(=O)OCOC(=O)C(C)C)c2c1

>  <score_type>  (22) 
oracle

>  <origin>  (22) 
adg

>  <m_score__min__energy>  (22) 
-6.9100000000000001

>  <m_primary>  (22) 
energy

$$$$
23:0
     RDKit          3D

 38 39  0  0  0  0  0  0  0  0999 V2000
  142.3000  157.3890  132.4890 C   0  0  0  0  0  0  0  0  0  0  0  0
  142.7070  158.3270  133.5450 N   0  0  1  0  0  0  0  0  0  0  0  0
  141.6840  158.4310  134.5560 C   0  0  0  0  0  0  0  0  0  0  0  0
  141.9060  159.0570  135.6310 O   0  0  0  0  0  0  0  0  0  0  0  0
  140.4410  157.8200  134.3420 O   0  0  0  0  0  0  0  0  0  0  0  0
  139.3180  158.4990  133.7870 C   0  0  0  0  0  0  0  0  0  0  0  0
  139.7070  159.2100  132.5310 C   0  0  0  0  0  0  0  0  0  0  0  0
  140.7810  159.8650  132.4820 O   0  0  0  0  0  0  0  0  0  0  0  0
  138.8690  159.1800  131.4230 O   0  0  0  0  0  0  0  0  0  0  0  0
  143.9670  157.9120  134.1170 C   0  0  0  0  0  0  0  0  0  0  0  0
  144.0330  156.8870  134.8500 O   0  0  0  0  0  0  0  0  0  0  0  0
  145.1820  158.5750  133.7340 N   0  0  0  0  0  0  0  0  0  0  0  0
  145.3870  159.9060  133.5400 C   0  0  0  0  0  0  0  0  0  0  0  0
  144.4140  160.9770  133.8290 C   0  0  0  0  0  0  0  0  0  0  0  0
  143.0720  160.8640  133.3620 N   0  0  0  0  0  0  0  0  0  0  0  0
  144.7640  162.0070  134.4620 O   0  0  0  0  0  0  0  0  0  0  0  0
  146.6860  160.1370  133.0870 C   0  0  0  0  0  0  0  0  0  0  0  0
  147.2720  158.8930  133.0140 C   0  0  0  0  0  0  0  0  0  0  0  0
  148.5490  158.5240  132.6020 C   0  0  0  0  0  0  0  0  0  0  0  0
  148.8720  157.1570  132.6010 C   0  0  0  0  0  0  0  0  0  0  0  0
  147.9250  156.1860  133.0210 C   0  0  0  0  0  0  0  0  0  0  0  0
  148.2650  154.7190  132.9580 C   0  0  0  0  0  0  0  0  0  0  0  0
  148.4530  154.2050  134.2300 F   0  0  0  0  0  0  0  0  0  0  0  0
  147.2440  154.0070  132.3510 F   0  0  0  0  0  0  0  0  0  0  0  0
  149.4270  154.5520  132.2280 F   0  0  0  0  0  0  0  0  0  0  0  0
  146.6310  156.6000  133.4100 C   0  0  0  0  0  0  0  0  0  0  0  0
  146.3440  157.9690  133.4110 C   0  0  0  0  0  0  0  0  0  0  0  0
  141.9019  156.4715  132.9470 H   0  0  0  0  0  0  0  0  0  0  0  0
  141.5228  157.8543  131.8649 H   0  0  0  0  0  0  0  0  0  0  0  0
  143.1707  157.1393  131.8649 H   0  0  0  0  0  0  0  0  0  0  0  0
  142.8290  159.2680  133.1030 H   0  0  0  0  0  0  0  0  0  0  0  0
  138.5284  157.7677  133.5597 H   0  0  0  0  0  0  0  0  0  0  0  0
  138.9515  159.2370  134.5157 H   0  0  0  0  0  0  0  0  0  0  0  0
  142.3520  160.3510  133.9170 H   0  0  0  0  0  0  0  0  0  0  0  0
  147.1444  161.1061  132.8407 H   0  0  0  0  0  0  0  0  0  0  0  0
  149.2832  159.2800  132.2867 H   0  0  0  0  0  0  0  0  0  0  0  0
  149.8706  156.8348  132.2709 H   0  0  0  0  0  0  0  0  0  0  0  0
  145.8685  155.8640  133.7047 H   0  0  0  0  0  0  0  0  0  0  0  0
  1  2  1  0
  2  3  1  0
  3  4  2  0
  3  5  1  0
  5  6  1  0
  6  7  1  0
  7  8  2  0
  7  9  1  0
  2 10  1  0
 10 11  2  0
 10 12  1  0
 12 13  1  0
 13 14  1  0
 14 15  1  0
 14 16  2  0
 13 17  2  0
 17 18  1  0
 18 19  2  0
 19 20  1  0
 20 21  2  0
 21 22  1  0
 22 23  1  0
 22 24  1  0
 22 25  1  0
 21 26  1  0
 26 27  2  0
 27 12  1  0
 27 18  1  0
  1 28  1  0
  1 29  1  0
  1 30  1  0
  2 31  1  6
  6 32  1  0
  6 33  1  0
 15 34  1  0
 17 35  1  0
 19 36  1  0
 20 37  1  0
 26 38  1  0
M  CHG  3   2   1   9  -1  15  -1
M  END
>  <UniqueID>  (23) 
23

>  <SMILES>  (23) 
C[NH+](C(=O)OCC(=O)[O-])C(=O)n1c(C([NH-])=O)cc2ccc(C(F)(F)F)cc21

>  <Energy>  (23) 
78.15943185804817

>  <Genealogy>  (23) 
C[NH+](C(=O)OCC(=O)[O-])C(=O)n1c(C([NH-])=O)cc2ccc(C(F)(F)F)cc21 (protonated)
C[NH+](C(=O)OCC(=O)[O-])C(=O)n1c(C([NH-])=O)cc2ccc(C(F)(F)F)cc21 (3D coordinates assigned)
C[NH+](C(=O)OCC(=O)[O-])C(=O)n1c(C([NH-])=O)cc2ccc(C(F)(F)F)cc21 (optimized conformer: 78.15943185804817 kcal/mol)

>  <smiles>  (23) 
CN(C(=O)OCC(=O)O)C(=O)n1c(C(N)=O)cc2ccc(C(F)(F)F)cc21

>  <score_type>  (23) 
oracle

>  <origin>  (23) 
adg

>  <m_score__min__energy>  (23) 
-5.7800000000000002

>  <m_primary>  (23) 
energy

$$$$
24:0
     RDKit          3D

 34 35  0  0  0  0  0  0  0  0999 V2000
  145.9150  153.2350  134.2920 N   0  0  0  0  0  0  0  0  0  0  0  0
  146.6790  154.1470  135.0750 C   0  0  0  0  0  0  0  0  0  0  0  0
  146.8400  153.9210  136.3040 O   0  0  0  0  0  0  0  0  0  0  0  0
  147.2350  155.3800  134.4800 C   0  0  0  0  0  0  0  0  0  0  0  0
  146.8290  156.6600  134.8520 C   0  0  0  0  0  0  0  0  0  0  0  0
  147.5010  157.5170  134.0110 C   0  0  0  0  0  0  0  0  0  0  0  0
  147.4710  158.9070  133.9390 C   0  0  0  0  0  0  0  0  0  0  0  0
  148.2870  159.5330  132.9810 C   0  0  0  0  0  0  0  0  0  0  0  0
  149.1240  158.7660  132.1330 C   0  0  0  0  0  0  0  0  0  0  0  0
  149.9770  159.4460  131.0980 C   0  0  0  0  0  0  0  0  0  0  0  0
  149.1860  160.5020  130.3970 C   0  0  0  0  0  0  0  0  0  0  0  0
  148.1630  160.1910  129.7310 O   0  0  0  0  0  0  0  0  0  0  0  0
  149.5480  161.8380  130.5180 O   0  0  0  0  0  0  0  0  0  0  0  0
  149.1200  157.3570  132.2290 C   0  0  0  0  0  0  0  0  0  0  0  0
  148.2820  156.7580  133.1780 C   0  0  0  0  0  0  0  0  0  0  0  0
  148.1330  155.4440  133.4540 N   0  0  0  0  0  0  0  0  0  0  0  0
  148.8440  154.3610  132.8350 C   0  0  0  0  0  0  0  0  0  0  0  0
  149.9710  154.5670  132.3060 O   0  0  0  0  0  0  0  0  0  0  0  0
  148.2680  153.0880  132.7940 O   0  0  0  0  0  0  0  0  0  0  0  0
  149.0400  151.8920  132.8270 C   0  0  0  0  0  0  0  0  0  0  0  0
  148.2640  150.7630  132.1560 C   0  0  0  0  0  0  0  0  0  0  0  0
  146.8850  150.9360  132.3400 O   0  0  0  0  0  0  0  0  0  0  0  0
  146.3810  152.4840  133.7350 H   0  0  0  0  0  0  0  0  0  0  0  0
  146.1208  156.9287  135.6496 H   0  0  0  0  0  0  0  0  0  0  0  0
  146.8292  159.4964  134.6103 H   0  0  0  0  0  0  0  0  0  0  0  0
  148.2758  160.6291  132.8886 H   0  0  0  0  0  0  0  0  0  0  0  0
  150.8464  159.9077  131.5888 H   0  0  0  0  0  0  0  0  0  0  0  0
  150.3154  158.7009  130.3630 H   0  0  0  0  0  0  0  0  0  0  0  0
  149.7589  156.7454  131.5750 H   0  0  0  0  0  0  0  0  0  0  0  0
  149.9876  152.0531  132.2921 H   0  0  0  0  0  0  0  0  0  0  0  0
  149.2486  151.6207  133.8724 H   0  0  0  0  0  0  0  0  0  0  0  0
  148.4877  150.7606  131.0790 H   0  0  0  0  0  0  0  0  0  0  0  0
  148.5654  149.8069  132.6089 H   0  0  0  0  0  0  0  0  0  0  0  0
  146.7760  151.5500  133.1120 H   0  0  0  0  0  0  0  0  0  0  0  0
  1  2  1  0
  2  3  2  0
  2  4  1  0
  4  5  2  0
  5  6  1  0
  6  7  2  0
  7  8  1  0
  8  9  2  0
  9 10  1  0
 10 11  1  0
 11 12  2  0
 11 13  1  0
  9 14  1  0
 14 15  2  0
 15 16  1  0
 16 17  1  0
 17 18  2  0
 17 19  1  0
 19 20  1  0
 20 21  1  0
 21 22  1  0
 16  4  1  0
 15  6  1  0
  1 23  1  0
  5 24  1  0
  7 25  1  0
  8 26  1  0
 10 27  1  0
 10 28  1  0
 14 29  1  0
 20 30  1  0
 20 31  1  0
 21 32  1  0
 21 33  1  0
 22 34  1  0
M  CHG  2   1  -1  13  -1
M  END
>  <UniqueID>  (24) 
24

>  <SMILES>  (24) 
[NH-]C(=O)c1cc2ccc(CC(=O)[O-])cc2n1C(=O)OCCO

>  <Energy>  (24) 
67.07414678413858

>  <Genealogy>  (24) 
[NH-]C(=O)c1cc2ccc(CC(=O)[O-])cc2n1C(=O)OCCO (protonated)
[NH-]C(=O)c1cc2ccc(CC(=O)[O-])cc2n1C(=O)OCCO (3D coordinates assigned)
[NH-]C(=O)c1cc2ccc(CC(=O)[O-])cc2n1C(=O)OCCO (optimized conformer: 67.07414678413858 kcal/mol)

>  <smiles>  (24) 
NC(=O)c1cc2ccc(CC(=O)O)cc2n1C(=O)OCCO

>  <score_type>  (24) 
oracle

>  <origin>  (24) 
adg

>  <m_score__min__energy>  (24) 
-6.04

>  <m_primary>  (24) 
energy

$$$$
25:0
     RDKit          3D

 37 39  0  0  0  0  0  0  0  0999 V2000
  149.5150  162.2870  130.2500 C   0  0  0  0  0  0  0  0  0  0  0  0
  149.1550  161.2760  130.8010 C   0  0  0  0  0  0  0  0  0  0  0  0
  148.7270  160.0700  131.4590 C   0  0  0  0  0  0  0  0  0  0  0  0
  149.6210  158.9830  131.5890 C   0  0  0  0  0  0  0  0  0  0  0  0
  149.2200  157.8040  132.2390 C   0  0  0  0  0  0  0  0  0  0  0  0
  147.9200  157.7440  132.7350 C   0  0  0  0  0  0  0  0  0  0  0  0
  147.2850  156.7390  133.4300 C   0  0  0  0  0  0  0  0  0  0  0  0
  146.0040  157.2230  133.6840 C   0  0  0  0  0  0  0  0  0  0  0  0
  144.9570  156.4290  134.3550 C   0  0  0  0  0  0  0  0  0  0  0  0
  143.5890  156.5310  133.9590 N   0  0  0  0  0  0  0  0  0  0  0  0
  145.2820  155.6080  135.2530 O   0  0  0  0  0  0  0  0  0  0  0  0
  145.8530  158.4790  133.1810 N   0  0  0  0  0  0  0  0  0  0  0  0
  144.7250  159.3540  133.3540 C   0  0  0  0  0  0  0  0  0  0  0  0
  144.8850  160.4950  133.8650 O   0  0  0  0  0  0  0  0  0  0  0  0
  143.4500  158.9290  132.9620 O   0  0  0  0  0  0  0  0  0  0  0  0
  142.2520  159.3360  133.6180 C   0  0  0  0  0  0  0  0  0  0  0  0
  141.1400  158.3790  133.3160 C   0  0  0  0  0  0  0  0  0  0  0  0
  141.1700  157.0970  133.5940 O   0  0  0  0  0  0  0  0  0  0  0  0
  140.0250  156.6100  133.1740 C   0  0  0  0  0  0  0  0  0  0  0  0
  139.7030  155.3980  133.2750 O   0  0  0  0  0  0  0  0  0  0  0  0
  139.2520  157.5270  132.6370 O   0  0  0  0  0  0  0  0  0  0  0  0
  139.9240  158.6520  132.7130 C   0  0  0  0  0  0  0  0  0  0  0  0
  139.4260  159.9720  132.2250 C   0  0  0  0  0  0  0  0  0  0  0  0
  147.0350  158.7850  132.5990 C   0  0  0  0  0  0  0  0  0  0  0  0
  147.4180  159.9790  131.9740 C   0  0  0  0  0  0  0  0  0  0  0  0
  149.8433  163.2089  129.7476 H   0  0  0  0  0  0  0  0  0  0  0  0
  150.6384  159.0608  131.1781 H   0  0  0  0  0  0  0  0  0  0  0  0
  149.9106  156.9554  132.3526 H   0  0  0  0  0  0  0  0  0  0  0  0
  147.7004  155.7632  133.7219 H   0  0  0  0  0  0  0  0  0  0  0  0
  143.3130  157.0760  133.1130 H   0  0  0  0  0  0  0  0  0  0  0  0
  142.8530  155.9890  134.4660 H   0  0  0  0  0  0  0  0  0  0  0  0
  142.4240  159.3606  134.7042 H   0  0  0  0  0  0  0  0  0  0  0  0
  141.9698  160.3361  133.2571 H   0  0  0  0  0  0  0  0  0  0  0  0
  139.1840  160.6134  133.0853 H   0  0  0  0  0  0  0  0  0  0  0  0
  140.2038  160.4547  131.6151 H   0  0  0  0  0  0  0  0  0  0  0  0
  138.5232  159.8206  131.6151 H   0  0  0  0  0  0  0  0  0  0  0  0
  146.7167  160.8220  131.8876 H   0  0  0  0  0  0  0  0  0  0  0  0
  1  2  3  0
  2  3  1  0
  3  4  2  0
  4  5  1  0
  5  6  2  0
  6  7  1  0
  7  8  2  0
  8  9  1  0
  9 10  1  0
  9 11  2  0
  8 12  1  0
 12 13  1  0
 13 14  2  0
 13 15  1  0
 15 16  1  0
 16 17  1  0
 17 18  1  0
 18 19  1  0
 19 20  2  0
 19 21  1  0
 21 22  1  0
 22 23  1  0
 12 24  1  0
 24 25  2  0
 25  3  1  0
 24  6  1  0
 22 17  2  0
  1 26  1  0
  4 27  1  0
  5 28  1  0
  7 29  1  0
 10 30  1  0
 10 31  1  0
 16 32  1  0
 16 33  1  0
 23 34  1  0
 23 35  1  0
 23 36  1  0
 25 37  1  0
M  END
>  <UniqueID>  (25) 
25

>  <SMILES>  (25) 
C#Cc1ccc2cc(C(N)=O)n(C(=O)OCc3oc(=O)oc3C)c2c1

>  <Energy>  (25) 
106.00710115459015

>  <Genealogy>  (25) 
C#Cc1ccc2cc(C(N)=O)n(C(=O)OCc3oc(=O)oc3C)c2c1 (3D coordinates assigned)
C#Cc1ccc2cc(C(N)=O)n(C(=O)OCc3oc(=O)oc3C)c2c1 (optimized conformer: 106.00710115459015 kcal/mol)

>  <smiles>  (25) 
C#Cc1ccc2cc(C(N)=O)n(C(=O)OCc3oc(=O)oc3C)c2c1

>  <score_type>  (25) 
oracle

>  <origin>  (25) 
adg

>  <m_score__min__energy>  (25) 
-7.2400000000000002

>  <m_primary>  (25) 
energy

$$$$
26:0
     RDKit          3D

 31 32  0  0  0  0  0  0  0  0999 V2000
  148.4550  154.4690  133.0530 C   0  0  0  0  0  0  0  0  0  0  0  0
  147.3660  155.0670  133.8360 N   0  0  0  0  0  0  0  0  0  0  0  0
  146.5650  154.1970  134.7120 C   0  0  0  0  0  0  0  0  0  0  0  0
  147.2420  154.0060  136.0340 C   0  0  0  0  0  0  0  0  0  0  0  0
  146.9870  152.9950  136.7390 O   0  0  0  0  0  0  0  0  0  0  0  0
  148.1650  154.9410  136.4860 O   0  0  0  0  0  0  0  0  0  0  0  0
  147.0800  156.4830  133.7170 C   0  0  0  0  0  0  0  0  0  0  0  0
  148.1120  157.3990  133.3700 C   0  0  0  0  0  0  0  0  0  0  0  0
  147.8520  158.7750  133.2550 C   0  0  0  0  0  0  0  0  0  0  0  0
  146.5520  159.2140  133.4820 C   0  0  0  0  0  0  0  0  0  0  0  0
  146.0290  160.4870  133.4540 C   0  0  0  0  0  0  0  0  0  0  0  0
  144.6770  160.3360  133.7580 C   0  0  0  0  0  0  0  0  0  0  0  0
  143.7080  161.4500  133.7350 C   0  0  0  0  0  0  0  0  0  0  0  0
  142.3070  161.1980  133.6930 N   0  0  0  0  0  0  0  0  0  0  0  0
  144.1240  162.6390  133.7020 O   0  0  0  0  0  0  0  0  0  0  0  0
  144.3800  159.0240  133.9780 N   0  0  0  0  0  0  0  0  0  0  0  0
  143.1310  158.4610  134.4020 C   0  0  0  0  0  0  0  0  0  0  0  0
  142.6040  158.8300  135.4840 O   0  0  0  0  0  0  0  0  0  0  0  0
  142.2770  157.3120  133.3850 Cl  0  0  0  0  0  0  0  0  0  0  0  0
  145.5380  158.3510  133.8000 C   0  0  0  0  0  0  0  0  0  0  0  0
  145.7700  156.9790  133.9390 C   0  0  0  0  0  0  0  0  0  0  0  0
  149.2116  154.0535  133.7349 H   0  0  0  0  0  0  0  0  0  0  0  0
  148.0523  153.6655  132.4188 H   0  0  0  0  0  0  0  0  0  0  0  0
  148.9169  155.2400  132.4188 H   0  0  0  0  0  0  0  0  0  0  0  0
  145.5795  154.6579  134.8747 H   0  0  0  0  0  0  0  0  0  0  0  0
  146.4533  153.2156  134.2278 H   0  0  0  0  0  0  0  0  0  0  0  0
  149.1300  157.0238  133.1888 H   0  0  0  0  0  0  0  0  0  0  0  0
  148.6520  159.4832  132.9935 H   0  0  0  0  0  0  0  0  0  0  0  0
  146.5639  161.4236  133.2378 H   0  0  0  0  0  0  0  0  0  0  0  0
  141.8630  160.5210  134.3510 H   0  0  0  0  0  0  0  0  0  0  0  0
  144.9520  156.2974  134.2153 H   0  0  0  0  0  0  0  0  0  0  0  0
  1  2  1  0
  2  3  1  0
  3  4  1  0
  4  5  2  0
  4  6  1  0
  2  7  1  0
  7  8  2  0
  8  9  1  0
  9 10  2  0
 10 11  1  0
 11 12  2  0
 12 13  1  0
 13 14  1  0
 13 15  2  0
 12 16  1  0
 16 17  1  0
 17 18  2  0
 17 19  1  0
 16 20  1  0
 20 21  2  0
 21  7  1  0
 20 10  1  0
  1 22  1  0
  1 23  1  0
  1 24  1  0
  3 25  1  0
  3 26  1  0
  8 27  1  0
  9 28  1  0
 11 29  1  0
 14 30  1  0
 21 31  1  0
M  CHG  2   6  -1  14  -1
M  END
>  <UniqueID>  (26) 
26

>  <SMILES>  (26) 
CN(CC(=O)[O-])c1ccc2cc(C([NH-])=O)n(C(=O)Cl)c2c1

>  <Energy>  (26) 
73.59090936925301

>  <Genealogy>  (26) 
CN(CC(=O)[O-])c1ccc2cc(C([NH-])=O)n(C(=O)Cl)c2c1 (protonated)
CN(CC(=O)[O-])c1ccc2cc(C([NH-])=O)n(C(=O)Cl)c2c1 (3D coordinates assigned)
CN(CC(=O)[O-])c1ccc2cc(C([NH-])=O)n(C(=O)Cl)c2c1 (optimized conformer: 73.59090936925301 kcal/mol)

>  <smiles>  (26) 
CN(CC(=O)O)c1ccc2cc(C(N)=O)n(C(=O)Cl)c2c1

>  <score_type>  (26) 
oracle

>  <origin>  (26) 
adg

>  <m_score__min__energy>  (26) 
-6.3399999999999999

>  <m_primary>  (26) 
energy

$$$$
27:0
     RDKit          3D

 41 42  0  0  0  0  0  0  0  0999 V2000
  145.8880  154.0770  133.8790 C   0  0  0  0  0  0  0  0  0  0  0  0
  147.1330  154.6370  134.4170 N   0  0  0  0  0  0  0  0  0  0  0  0
  148.0860  153.7290  135.0710 C   0  0  0  0  0  0  0  0  0  0  0  0
  147.8210  153.6720  136.5420 C   0  0  0  0  0  0  0  0  0  0  0  0
  146.8420  153.0150  136.9830 O   0  0  0  0  0  0  0  0  0  0  0  0
  148.6760  154.3120  137.4290 O   0  0  0  0  0  0  0  0  0  0  0  0
  147.4930  156.0290  134.2300 C   0  0  0  0  0  0  0  0  0  0  0  0
  148.1040  156.6310  135.1540 O   0  0  0  0  0  0  0  0  0  0  0  0
  147.1690  156.8000  133.0030 C   0  0  0  0  0  0  0  0  0  0  0  0
  147.1170  156.2420  131.8750 O   0  0  0  0  0  0  0  0  0  0  0  0
  146.9070  158.2100  133.0910 N   0  0  0  0  0  0  0  0  0  0  0  0
  147.7420  159.2320  132.7520 C   0  0  0  0  0  0  0  0  0  0  0  0
  149.1430  159.0880  132.3060 C   0  0  0  0  0  0  0  0  0  0  0  0
  149.6530  157.7990  131.9730 N   0  0  0  0  0  0  0  0  0  0  0  0
  149.8920  160.0940  132.1980 O   0  0  0  0  0  0  0  0  0  0  0  0
  147.1040  160.4580  132.9290 C   0  0  0  0  0  0  0  0  0  0  0  0
  145.8420  160.1490  133.3850 C   0  0  0  0  0  0  0  0  0  0  0  0
  144.7780  160.9810  133.7100 C   0  0  0  0  0  0  0  0  0  0  0  0
  143.5770  160.3860  134.1320 C   0  0  0  0  0  0  0  0  0  0  0  0
  143.4470  158.9690  134.2160 C   0  0  0  0  0  0  0  0  0  0  0  0
  142.2000  158.3610  134.6460 N   0  0  0  0  0  0  0  0  0  0  0  0
  141.2930  159.0780  135.5520 C   0  0  0  0  0  0  0  0  0  0  0  0
  141.8250  157.0190  134.1840 C   0  0  0  0  0  0  0  0  0  0  0  0
  144.5620  158.1630  133.8680 C   0  0  0  0  0  0  0  0  0  0  0  0
  145.7480  158.7870  133.4720 C   0  0  0  0  0  0  0  0  0  0  0  0
  145.2301  153.7811  134.7094 H   0  0  0  0  0  0  0  0  0  0  0  0
  145.3819  154.8342  133.2621 H   0  0  0  0  0  0  0  0  0  0  0  0
  146.1187  153.1960  133.2621 H   0  0  0  0  0  0  0  0  0  0  0  0
  147.9791  152.7211  134.6435 H   0  0  0  0  0  0  0  0  0  0  0  0
  149.1076  154.1017  134.9051 H   0  0  0  0  0  0  0  0  0  0  0  0
  149.0640  157.1040  131.4650 H   0  0  0  0  0  0  0  0  0  0  0  0
  147.5199  161.4594  132.7439 H   0  0  0  0  0  0  0  0  0  0  0  0
  144.8730  162.0746  133.6390 H   0  0  0  0  0  0  0  0  0  0  0  0
  142.7229  161.0244  134.4020 H   0  0  0  0  0  0  0  0  0  0  0  0
  141.5684  158.8603  136.5945 H   0  0  0  0  0  0  0  0  0  0  0  0
  141.3727  160.1599  135.3700 H   0  0  0  0  0  0  0  0  0  0  0  0
  140.2587  158.7508  135.3700 H   0  0  0  0  0  0  0  0  0  0  0  0
  141.6435  156.3695  135.0530 H   0  0  0  0  0  0  0  0  0  0  0  0
  140.9102  157.0827  133.5764 H   0  0  0  0  0  0  0  0  0  0  0  0
  142.6403  156.5993  133.5764 H   0  0  0  0  0  0  0  0  0  0  0  0
  144.4938  157.0659  133.9093 H   0  0  0  0  0  0  0  0  0  0  0  0
  1  2  1  0
  2  3  1  0
  3  4  1  0
  4  5  2  0
  4  6  1  0
  2  7  1  0
  7  8  2  0
  7  9  1  0
  9 10  2  0
  9 11  1  0
 11 12  1  0
 12 13  1  0
 13 14  1  0
 13 15  2  0
 12 16  2  0
 16 17  1  0
 17 18  2  0
 18 19  1  0
 19 20  2  0
 20 21  1  0
 21 22  1  0
 21 23  1  0
 20 24  1  0
 24 25  2  0
 25 11  1  0
 25 17  1  0
  1 26  1  0
  1 27  1  0
  1 28  1  0
  3 29  1  0
  3 30  1  0
 14 31  1  0
 16 32  1  0
 18 33  1  0
 19 34  1  0
 22 35  1  0
 22 36  1  0
 22 37  1  0
 23 38  1  0
 23 39  1  0
 23 40  1  0
 24 41  1  0
M  CHG  2   6  -1  14  -1
M  END
>  <UniqueID>  (27) 
27

>  <SMILES>  (27) 
CN(CC(=O)[O-])C(=O)C(=O)n1c(C([NH-])=O)cc2ccc(N(C)C)cc21

>  <Energy>  (27) 
81.69394655849716

>  <Genealogy>  (27) 
CN(CC(=O)[O-])C(=O)C(=O)n1c(C([NH-])=O)cc2ccc(N(C)C)cc21 (protonated)
CN(CC(=O)[O-])C(=O)C(=O)n1c(C([NH-])=O)cc2ccc(N(C)C)cc21 (3D coordinates assigned)
CN(CC(=O)[O-])C(=O)C(=O)n1c(C([NH-])=O)cc2ccc(N(C)C)cc21 (optimized conformer: 81.69394655849716 kcal/mol)

>  <smiles>  (27) 
CN(CC(=O)O)C(=O)C(=O)n1c(C(N)=O)cc2ccc(N(C)C)cc21

>  <score_type>  (27) 
oracle

>  <origin>  (27) 
adg

>  <m_score__min__energy>  (27) 
-6.6200000000000001

>  <m_primary>  (27) 
energy

$$$$
28:0
     RDKit          3D

 47 48  0  0  0  0  0  0  0  0999 V2000
  142.8530  149.6240  132.1610 C   0  0  0  0  0  0  0  0  0  0  0  0
  142.5180  150.9080  132.7850 N   0  0  0  0  0  0  0  0  0  0  0  0
  141.1230  151.2210  133.1190 C   0  0  0  0  0  0  0  0  0  0  0  0
  143.5730  151.8580  133.0470 C   0  0  0  0  0  0  0  0  0  0  0  0
  144.7510  151.5980  132.6730 O   0  0  0  0  0  0  0  0  0  0  0  0
  143.2880  153.1810  133.7150 C   0  0  0  0  0  0  0  0  0  0  0  0
  144.5270  153.9430  133.9440 N   0  0  0  0  0  0  0  0  0  0  0  0
  145.0480  154.0860  135.2810 C   0  0  0  0  0  0  0  0  0  0  0  0
  146.1730  153.6070  135.5840 O   0  0  0  0  0  0  0  0  0  0  0  0
  144.3250  154.7720  136.2510 O   0  0  0  0  0  0  0  0  0  0  0  0
  145.1340  154.6610  132.8530 C   0  0  0  0  0  0  0  0  0  0  0  0
  144.5950  154.6440  131.7120 O   0  0  0  0  0  0  0  0  0  0  0  0
  146.3570  155.3950  133.0400 N   0  0  0  0  0  0  0  0  0  0  0  0
  147.6310  154.9310  132.9030 C   0  0  0  0  0  0  0  0  0  0  0  0
  148.0210  153.5230  132.6870 C   0  0  0  0  0  0  0  0  0  0  0  0
  147.1900  152.4470  133.1240 N   0  0  0  0  0  0  0  0  0  0  0  0
  149.1300  153.2650  132.1480 O   0  0  0  0  0  0  0  0  0  0  0  0
  148.5460  155.9740  133.0170 C   0  0  0  0  0  0  0  0  0  0  0  0
  147.7870  157.1020  133.2340 C   0  0  0  0  0  0  0  0  0  0  0  0
  148.1770  158.4240  133.4040 C   0  0  0  0  0  0  0  0  0  0  0  0
  147.1750  159.3920  133.5790 C   0  0  0  0  0  0  0  0  0  0  0  0
  145.7960  159.0330  133.5680 C   0  0  0  0  0  0  0  0  0  0  0  0
  144.7670  160.0390  133.7540 N   0  0  0  0  0  0  0  0  0  0  0  0
  145.1280  161.4190  134.1020 C   0  0  0  0  0  0  0  0  0  0  0  0
  143.3480  159.6960  133.5900 C   0  0  0  0  0  0  0  0  0  0  0  0
  145.4490  157.6710  133.3790 C   0  0  0  0  0  0  0  0  0  0  0  0
  146.4710  156.7270  133.2360 C   0  0  0  0  0  0  0  0  0  0  0  0
  143.0482  148.8759  132.9435 H   0  0  0  0  0  0  0  0  0  0  0  0
  142.0120  149.2897  131.5357 H   0  0  0  0  0  0  0  0  0  0  0  0
  143.7501  149.7432  131.5357 H   0  0  0  0  0  0  0  0  0  0  0  0
  141.0048  151.2475  134.2123 H   0  0  0  0  0  0  0  0  0  0  0  0
  140.8561  152.2013  132.6975 H   0  0  0  0  0  0  0  0  0  0  0  0
  140.4629  150.4486  132.6975 H   0  0  0  0  0  0  0  0  0  0  0  0
  142.6186  153.7705  133.0712 H   0  0  0  0  0  0  0  0  0  0  0  0
  142.8169  152.9835  134.6892 H   0  0  0  0  0  0  0  0  0  0  0  0
  147.4600  151.4610  132.9170 H   0  0  0  0  0  0  0  0  0  0  0  0
  146.3600  152.6180  133.7320 H   0  0  0  0  0  0  0  0  0  0  0  0
  149.6420  155.9104  132.9483 H   0  0  0  0  0  0  0  0  0  0  0  0
  149.2406  158.7048  133.4017 H   0  0  0  0  0  0  0  0  0  0  0  0
  147.4591  160.4443  133.7269 H   0  0  0  0  0  0  0  0  0  0  0  0
  145.1559  161.5258  135.1965 H   0  0  0  0  0  0  0  0  0  0  0  0
  146.1182  161.6552  133.6851 H   0  0  0  0  0  0  0  0  0  0  0  0
  144.3804  162.1098  133.6851 H   0  0  0  0  0  0  0  0  0  0  0  0
  142.8813  159.5832  134.5797 H   0  0  0  0  0  0  0  0  0  0  0  0
  142.8391  160.4970  133.0338 H   0  0  0  0  0  0  0  0  0  0  0  0
  143.2611  158.7510  133.0338 H   0  0  0  0  0  0  0  0  0  0  0  0
  144.3938  157.3622  133.3454 H   0  0  0  0  0  0  0  0  0  0  0  0
  1  2  1  0
  2  3  1  0
  2  4  1  0
  4  5  2  0
  4  6  1  0
  6  7  1  0
  7  8  1  0
  8  9  2  0
  8 10  1  0
  7 11  1  0
 11 12  2  0
 11 13  1  0
 13 14  1  0
 14 15  1  0
 15 16  1  0
 15 17  2  0
 14 18  2  0
 18 19  1  0
 19 20  2  0
 20 21  1  0
 21 22  2  0
 22 23  1  0
 23 24  1  0
 23 25  1  0
 22 26  1  0
 26 27  2  0
 27 13  1  0
 27 19  1  0
  1 28  1  0
  1 29  1  0
  1 30  1  0
  3 31  1  0
  3 32  1  0
  3 33  1  0
  6 34  1  0
  6 35  1  0
 16 36  1  0
 16 37  1  0
 18 38  1  0
 20 39  1  0
 21 40  1  0
 24 41  1  0
 24 42  1  0
 24 43  1  0
 25 44  1  0
 25 45  1  0
 25 46  1  0
 26 47  1  0
M  CHG  1  10  -1
M  END
>  <UniqueID>  (28) 
28

>  <SMILES>  (28) 
CN(C)C(=O)CN(C(=O)[O-])C(=O)n1c(C(N)=O)cc2ccc(N(C)C)cc21

>  <Energy>  (28) 
86.58919756686304

>  <Genealogy>  (28) 
CN(C)C(=O)CN(C(=O)[O-])C(=O)n1c(C(N)=O)cc2ccc(N(C)C)cc21 (protonated)
CN(C)C(=O)CN(C(=O)[O-])C(=O)n1c(C(N)=O)cc2ccc(N(C)C)cc21 (3D coordinates assigned)
CN(C)C(=O)CN(C(=O)[O-])C(=O)n1c(C(N)=O)cc2ccc(N(C)C)cc21 (optimized conformer: 86.58919756686304 kcal/mol)

>  <smiles>  (28) 
CN(C)C(=O)CN(C(=O)O)C(=O)n1c(C(N)=O)cc2ccc(N(C)C)cc21

>  <score_type>  (28) 
oracle

>  <origin>  (28) 
adg

>  <m_score__min__energy>  (28) 
-6.8200000000000003

>  <m_primary>  (28) 
energy

$$$$
29:0
     RDKit          3D

 42 43  0  0  0  0  0  0  0  0999 V2000
  138.5450  158.5190  132.2550 N   0  0  0  0  0  0  0  0  0  0  0  0
  139.6170  159.1430  132.9670 C   0  0  0  0  0  0  0  0  0  0  0  0
  140.1390  160.1890  132.5010 O   0  0  0  0  0  0  0  0  0  0  0  0
  140.1140  158.5440  134.2240 C   0  0  0  0  0  0  0  0  0  0  0  0
  140.4540  159.2870  135.3540 C   0  0  0  0  0  0  0  0  0  0  0  0
  140.7990  158.3610  136.3120 C   0  0  0  0  0  0  0  0  0  0  0  0
  141.2350  158.5430  137.6220 C   0  0  0  0  0  0  0  0  0  0  0  0
  141.5590  157.3990  138.3720 C   0  0  0  0  0  0  0  0  0  0  0  0
  141.4560  156.1050  137.8000 C   0  0  0  0  0  0  0  0  0  0  0  0
  141.8160  154.8900  138.6100 C   0  0  0  0  0  0  0  0  0  0  0  0
  140.5800  154.1480  139.0060 C   0  0  0  0  0  0  0  0  0  0  0  0
  139.6980  154.7250  139.7020 O   0  0  0  0  0  0  0  0  0  0  0  0
  140.3960  152.8340  138.5630 O   0  0  0  0  0  0  0  0  0  0  0  0
  141.0660  151.7060  139.1270 C   0  0  0  0  0  0  0  0  0  0  0  0
  140.6130  150.4160  138.4500 C   0  0  0  0  0  0  0  0  0  0  0  0
  139.9710  150.7200  137.2420 O   0  0  0  0  0  0  0  0  0  0  0  0
  140.9890  155.9590  136.4750 C   0  0  0  0  0  0  0  0  0  0  0  0
  140.6620  157.1160  135.7560 C   0  0  0  0  0  0  0  0  0  0  0  0
  140.2430  157.2130  134.4760 N   0  0  0  0  0  0  0  0  0  0  0  0
  140.0070  156.1180  133.5780 C   0  0  0  0  0  0  0  0  0  0  0  0
  138.8280  155.7180  133.3750 O   0  0  0  0  0  0  0  0  0  0  0  0
  141.0870  155.4940  132.9480 O   0  0  0  0  0  0  0  0  0  0  0  0
  141.8390  154.4510  133.5630 C   0  0  0  0  0  0  0  0  0  0  0  0
  140.9690  153.4850  134.1110 O   0  0  0  0  0  0  0  0  0  0  0  0
  141.8900  152.2870  134.9090 P   0  0  0  0  0  0  0  0  0  0  0  0
  142.1640  152.7010  136.3390 O   0  0  0  0  0  0  0  0  0  0  0  0
  143.3560  152.0260  134.1050 O   0  0  0  0  0  0  0  0  0  0  0  0
  141.0050  150.8470  134.9110 O   0  0  0  0  0  0  0  0  0  0  0  0
  138.1450  157.6110  132.5740 H   0  0  0  0  0  0  0  0  0  0  0  0
  140.4478  160.3821  135.4578 H   0  0  0  0  0  0  0  0  0  0  0  0
  141.3231  159.5499  138.0561 H   0  0  0  0  0  0  0  0  0  0  0  0
  141.8960  157.5084  139.4134 H   0  0  0  0  0  0  0  0  0  0  0  0
  142.4589  154.2302  138.0090 H   0  0  0  0  0  0  0  0  0  0  0  0
  142.3491  155.2091  139.5177 H   0  0  0  0  0  0  0  0  0  0  0  0
  142.1509  151.8244  138.9893 H   0  0  0  0  0  0  0  0  0  0  0  0
  140.8213  151.6483  140.1979 H   0  0  0  0  0  0  0  0  0  0  0  0
  141.4884  149.7807  138.2497 H   0  0  0  0  0  0  0  0  0  0  0  0
  139.9144  149.8821  139.1110 H   0  0  0  0  0  0  0  0  0  0  0  0
  140.4570  151.4970  136.8610 H   0  0  0  0  0  0  0  0  0  0  0  0
  140.8848  154.9631  136.0197 H   0  0  0  0  0  0  0  0  0  0  0  0
  142.4838  153.9745  132.8099 H   0  0  0  0  0  0  0  0  0  0  0  0
  142.4559  154.8779  134.3675 H   0  0  0  0  0  0  0  0  0  0  0  0
  1  2  1  0
  2  3  2  0
  2  4  1  0
  4  5  2  0
  5  6  1  0
  6  7  2  0
  7  8  1  0
  8  9  2  0
  9 10  1  0
 10 11  1  0
 11 12  2  0
 11 13  1  0
 13 14  1  0
 14 15  1  0
 15 16  1  0
  9 17  1  0
 17 18  2  0
 18 19  1  0
 19 20  1  0
 20 21  2  0
 20 22  1  0
 22 23  1  0
 23 24  1  0
 24 25  1  0
 25 26  2  0
 25 27  1  0
 25 28  1  0
 19  4  1  0
 18  6  1  0
  1 29  1  0
  5 30  1  0
  7 31  1  0
  8 32  1  0
 10 33  1  0
 10 34  1  0
 14 35  1  0
 14 36  1  0
 15 37  1  0
 15 38  1  0
 16 39  1  0
 17 40  1  0
 23 41  1  0
 23 42  1  0
M  CHG  3   1  -1  27  -1  28  -1
M  END
>  <UniqueID>  (29) 
29

>  <SMILES>  (29) 
[NH-]C(=O)c1cc2ccc(CC(=O)OCCO)cc2n1C(=O)OCOP(=O)([O-])[O-]

>  <Energy>  (29) 
73.05485165951053

>  <Genealogy>  (29) 
[NH-]C(=O)c1cc2ccc(CC(=O)OCCO)cc2n1C(=O)OCOP(=O)([O-])[O-] (protonated)
[NH-]C(=O)c1cc2ccc(CC(=O)OCCO)cc2n1C(=O)OCOP(=O)([O-])[O-] (3D coordinates assigned)
[NH-]C(=O)c1cc2ccc(CC(=O)OCCO)cc2n1C(=O)OCOP(=O)([O-])[O-] (optimized conformer: 73.05485165951053 kcal/mol)

>  <smiles>  (29) 
NC(=O)c1cc2ccc(CC(=O)OCCO)cc2n1C(=O)OCOP(=O)(O)O

>  <score_type>  (29) 
oracle

>  <origin>  (29) 
adg

>  <m_score__min__energy>  (29) 
-6.4000000000000004

>  <m_primary>  (29) 
energy

$$$$
30:0
     RDKit          3D

 41 42  0  0  0  0  0  0  0  0999 V2000
  149.7010  150.7640  134.3860 C   0  0  0  0  0  0  0  0  0  0  0  0
  149.6160  151.0800  132.8770 C   0  0  0  0  0  0  0  0  0  0  0  0
  151.0380  151.1170  132.2860 C   0  0  0  0  0  0  0  0  0  0  0  0
  148.8040  149.9690  132.1650 C   0  0  0  0  0  0  0  0  0  0  0  0
  147.6200  149.6960  132.8650 O   0  0  0  0  0  0  0  0  0  0  0  0
  148.9730  152.4380  132.6640 C   0  0  0  0  0  0  0  0  0  0  0  0
  149.5490  153.2970  131.9400 O   0  0  0  0  0  0  0  0  0  0  0  0
  147.7110  152.7030  133.2150 O   0  0  0  0  0  0  0  0  0  0  0  0
  146.4840  152.4900  132.5740 C   0  0  0  0  0  0  0  0  0  0  0  0
  146.3550  151.5720  131.7200 O   0  0  0  0  0  0  0  0  0  0  0  0
  145.3630  153.3290  132.9000 N   0  0  0  0  0  0  0  0  0  0  0  0
  145.3620  154.6880  133.0180 C   0  0  0  0  0  0  0  0  0  0  0  0
  146.5530  155.5610  133.0000 C   0  0  0  0  0  0  0  0  0  0  0  0
  147.7010  155.2290  132.2160 N   0  0  0  0  0  0  0  0  0  0  0  0
  146.5790  156.5880  133.7290 O   0  0  0  0  0  0  0  0  0  0  0  0
  144.0680  155.1660  133.2050 C   0  0  0  0  0  0  0  0  0  0  0  0
  143.2660  154.0480  133.2130 C   0  0  0  0  0  0  0  0  0  0  0  0
  141.8860  153.9420  133.3490 C   0  0  0  0  0  0  0  0  0  0  0  0
  141.3140  152.6610  133.2790 C   0  0  0  0  0  0  0  0  0  0  0  0
  142.1240  151.5190  133.0630 C   0  0  0  0  0  0  0  0  0  0  0  0
  141.4890  150.1600  132.9770 C   0  0  0  0  0  0  0  0  0  0  0  0
  142.4470  149.2180  132.6520 F   0  0  0  0  0  0  0  0  0  0  0  0
  140.9220  149.8330  134.1960 F   0  0  0  0  0  0  0  0  0  0  0  0
  143.5220  151.6660  132.9270 C   0  0  0  0  0  0  0  0  0  0  0  0
  144.0700  152.9520  133.0240 C   0  0  0  0  0  0  0  0  0  0  0  0
  149.4579  151.6677  134.9641 H   0  0  0  0  0  0  0  0  0  0  0  0
  148.9855  149.9663  134.6344 H   0  0  0  0  0  0  0  0  0  0  0  0
  150.7201  150.4329  134.6344 H   0  0  0  0  0  0  0  0  0  0  0  0
  151.7743  151.1362  133.1030 H   0  0  0  0  0  0  0  0  0  0  0  0
  151.2010  150.2228  131.6665 H   0  0  0  0  0  0  0  0  0  0  0  0
  151.1542  152.0185  131.6665 H   0  0  0  0  0  0  0  0  0  0  0  0
  148.5533  150.3009  131.1467 H   0  0  0  0  0  0  0  0  0  0  0  0
  149.4128  149.0536  132.1284 H   0  0  0  0  0  0  0  0  0  0  0  0
  147.3650  150.5440  133.3170 H   0  0  0  0  0  0  0  0  0  0  0  0
  147.7730  154.3110  131.7270 H   0  0  0  0  0  0  0  0  0  0  0  0
  148.5170  155.8800  132.1830 H   0  0  0  0  0  0  0  0  0  0  0  0
  143.7538  156.2137  133.3215 H   0  0  0  0  0  0  0  0  0  0  0  0
  141.2617  154.8338  133.5065 H   0  0  0  0  0  0  0  0  0  0  0  0
  140.2263  152.5434  133.3931 H   0  0  0  0  0  0  0  0  0  0  0  0
  140.7097  150.1747  132.2008 H   0  0  0  0  0  0  0  0  0  0  0  0
  144.1654  150.7917  132.7491 H   0  0  0  0  0  0  0  0  0  0  0  0
  1  2  1  0
  2  3  1  0
  2  4  1  0
  4  5  1  0
  2  6  1  0
  6  7  2  0
  6  8  1  0
  8  9  1  0
  9 10  2  0
  9 11  1  0
 11 12  1  0
 12 13  1  0
 13 14  1  0
 13 15  2  0
 12 16  2  0
 16 17  1  0
 17 18  2  0
 18 19  1  0
 19 20  2  0
 20 21  1  0
 21 22  1  0
 21 23  1  0
 20 24  1  0
 24 25  2  0
 25 11  1  0
 25 17  1  0
  1 26  1  0
  1 27  1  0
  1 28  1  0
  3 29  1  0
  3 30  1  0
  3 31  1  0
  4 32  1  0
  4 33  1  0
  5 34  1  0
 14 35  1  0
 14 36  1  0
 16 37  1  0
 18 38  1  0
 19 39  1  0
 21 40  1  0
 24 41  1  0
M  END
>  <UniqueID>  (30) 
30

>  <SMILES>  (30) 
CC(C)(CO)C(=O)OC(=O)n1c(C(N)=O)cc2ccc(C(F)F)cc21

>  <Energy>  (30) 
76.36053980454433

>  <Genealogy>  (30) 
CC(C)(CO)C(=O)OC(=O)n1c(C(N)=O)cc2ccc(C(F)F)cc21 (3D coordinates assigned)
CC(C)(CO)C(=O)OC(=O)n1c(C(N)=O)cc2ccc(C(F)F)cc21 (optimized conformer: 76.36053980454433 kcal/mol)

>  <smiles>  (30) 
CC(C)(CO)C(=O)OC(=O)n1c(C(N)=O)cc2ccc(C(F)F)cc21

>  <score_type>  (30) 
oracle

>  <origin>  (30) 
adg

>  <m_score__min__energy>  (30) 
-6.9400000000000004

>  <m_primary>  (30) 
energy

$$$$
31:0
     RDKit          3D

 30 31  0  0  0  0  0  0  0  0999 V2000
  141.3640  157.7530  135.0300 C   0  0  0  0  0  0  0  0  0  0  0  0
  142.3840  158.2740  134.6530 C   0  0  0  0  0  0  0  0  0  0  0  0
  143.6020  158.8960  134.2040 C   0  0  0  0  0  0  0  0  0  0  0  0
  143.6990  160.3060  134.1610 C   0  0  0  0  0  0  0  0  0  0  0  0
  144.8870  160.9260  133.7370 C   0  0  0  0  0  0  0  0  0  0  0  0
  145.9480  160.1080  133.3570 C   0  0  0  0  0  0  0  0  0  0  0  0
  147.2160  160.4420  132.9370 C   0  0  0  0  0  0  0  0  0  0  0  0
  147.8610  159.2280  132.7070 C   0  0  0  0  0  0  0  0  0  0  0  0
  149.2300  159.1230  132.1630 C   0  0  0  0  0  0  0  0  0  0  0  0
  149.8020  157.8560  131.8540 N   0  0  0  0  0  0  0  0  0  0  0  0
  149.8860  160.1720  131.9220 O   0  0  0  0  0  0  0  0  0  0  0  0
  147.0270  158.1840  132.9810 N   0  0  0  0  0  0  0  0  0  0  0  0
  147.3400  156.7840  132.9690 C   0  0  0  0  0  0  0  0  0  0  0  0
  147.2940  156.1390  131.8860 O   0  0  0  0  0  0  0  0  0  0  0  0
  147.6770  156.1380  134.1650 O   0  0  0  0  0  0  0  0  0  0  0  0
  147.7100  154.7210  134.3120 C   0  0  0  0  0  0  0  0  0  0  0  0
  146.2260  154.1440  135.1920 P   0  0  0  0  0  0  0  0  0  0  0  0
  145.4580  153.1920  134.3040 O   0  0  0  0  0  0  0  0  0  0  0  0
  146.6910  153.3400  136.6050 O   0  0  0  0  0  0  0  0  0  0  0  0
  145.2370  155.4560  135.5920 O   0  0  0  0  0  0  0  0  0  0  0  0
  145.8600  158.7400  133.3760 C   0  0  0  0  0  0  0  0  0  0  0  0
  144.6950  158.0960  133.8120 C   0  0  0  0  0  0  0  0  0  0  0  0
  140.4335  157.2777  135.3739 H   0  0  0  0  0  0  0  0  0  0  0  0
  142.8386  160.9220  134.4615 H   0  0  0  0  0  0  0  0  0  0  0  0
  144.9758  162.0220  133.7063 H   0  0  0  0  0  0  0  0  0  0  0  0
  147.6318  161.4525  132.8099 H   0  0  0  0  0  0  0  0  0  0  0  0
  149.2140  157.0750  131.4870 H   0  0  0  0  0  0  0  0  0  0  0  0
  147.7468  154.2535  133.3170 H   0  0  0  0  0  0  0  0  0  0  0  0
  148.6018  154.4417  134.8922 H   0  0  0  0  0  0  0  0  0  0  0  0
  144.6345  156.9982  133.8475 H   0  0  0  0  0  0  0  0  0  0  0  0
  1  2  3  0
  2  3  1  0
  3  4  2  0
  4  5  1  0
  5  6  2  0
  6  7  1  0
  7  8  2  0
  8  9  1  0
  9 10  1  0
  9 11  2  0
  8 12  1  0
 12 13  1  0
 13 14  2  0
 13 15  1  0
 15 16  1  0
 16 17  1  0
 17 18  2  0
 17 19  1  0
 17 20  1  0
 12 21  1  0
 21 22  2  0
 22  3  1  0
 21  6  1  0
  1 23  1  0
  4 24  1  0
  5 25  1  0
  7 26  1  0
 10 27  1  0
 16 28  1  0
 16 29  1  0
 22 30  1  0
M  CHG  3  10  -1  19  -1  20  -1
M  END
>  <UniqueID>  (31) 
31

>  <SMILES>  (31) 
C#Cc1ccc2cc(C([NH-])=O)n(C(=O)OCP(=O)([O-])[O-])c2c1

>  <Energy>  (31) 
62.990316690426795

>  <Genealogy>  (31) 
C#Cc1ccc2cc(C([NH-])=O)n(C(=O)OCP(=O)([O-])[O-])c2c1 (protonated)
C#Cc1ccc2cc(C([NH-])=O)n(C(=O)OCP(=O)([O-])[O-])c2c1 (3D coordinates assigned)
C#Cc1ccc2cc(C([NH-])=O)n(C(=O)OCP(=O)([O-])[O-])c2c1 (optimized conformer: 62.990316690426795 kcal/mol)

>  <smiles>  (31) 
C#Cc1ccc2cc(C(N)=O)n(C(=O)OCP(=O)(O)O)c2c1

>  <score_type>  (31) 
oracle

>  <origin>  (31) 
adg

>  <m_score__min__energy>  (31) 
-6.5599999999999996

>  <m_primary>  (31) 
energy

$$$$
32:0
     RDKit          3D

 90 94  0  0  0  0  0  0  0  0999 V2000
  148.0590  159.8300  133.2810 C   0  0  0  0  0  0  0  0  0  0  0  0
  147.3410  158.6990  133.3700 C   0  0  0  0  0  0  0  0  0  0  0  0
  145.9430  158.7190  133.5590 O   0  0  0  0  0  0  0  0  0  0  0  0
  145.1180  159.8690  133.4050 C   0  0  0  0  0  0  0  0  0  0  0  0
  147.9920  157.3710  133.2360 C   0  0  0  0  0  0  0  0  0  0  0  0
  148.9570  157.2290  132.3200 C   0  0  0  0  0  0  0  0  0  0  0  0
  147.5540  156.2060  134.0550 C   0  0  0  0  0  0  0  0  0  0  0  0
  147.7850  156.1790  135.2930 O   0  0  0  0  0  0  0  0  0  0  0  0
  146.8330  155.1130  133.4650 N   0  0  0  0  0  0  0  0  0  0  0  0
  147.3290  153.9070  133.0710 C   0  0  0  0  0  0  0  0  0  0  0  0
  148.7590  153.5350  133.0260 C   0  0  0  0  0  0  0  0  0  0  0  0
  149.2220  152.3220  133.6190 N   0  0  0  0  0  0  0  0  0  0  0  0
  149.5920  154.3070  132.4730 O   0  0  0  0  0  0  0  0  0  0  0  0
  146.2930  153.0610  132.6750 C   0  0  0  0  0  0  0  0  0  0  0  0
  145.1390  153.7950  132.8460 C   0  0  0  0  0  0  0  0  0  0  0  0
  143.8110  153.4430  132.6220 C   0  0  0  0  0  0  0  0  0  0  0  0
  142.8200  154.3950  132.9150 C   0  0  0  0  0  0  0  0  0  0  0  0
  143.1650  155.6740  133.4310 C   0  0  0  0  0  0  0  0  0  0  0  0
  142.1420  156.6440  133.7410 N   0  0  0  0  0  0  0  0  0  0  0  0
  140.7920  156.2570  134.1320 C   0  0  0  0  0  0  0  0  0  0  0  0
  140.6200  156.3890  135.6490 C   0  0  0  0  0  0  0  0  0  0  0  0
  141.4360  157.4570  136.2710 N   0  0  0  0  0  0  0  0  0  0  0  0
  141.3540  157.6510  137.7050 C   0  0  0  0  0  0  0  0  0  0  0  0
  141.9580  158.6250  138.2340 O   0  0  0  0  0  0  0  0  0  0  0  0
  140.6450  156.6540  138.5930 C   0  0  0  0  0  0  0  0  0  0  0  0
  140.7790  155.2650  138.0940 N   0  0  0  0  0  0  0  0  0  0  0  0
  142.2050  154.8630  137.9700 C   0  0  0  0  0  0  0  0  0  0  0  0
  142.3700  153.3350  137.9960 C   0  0  0  0  0  0  0  0  0  0  0  0
  141.8760  152.7300  139.2620 N   0  0  0  0  0  0  0  0  0  0  0  0
  142.9960  152.4580  140.1900 C   0  0  0  0  0  0  0  0  0  0  0  0
  143.8560  151.2940  139.7810 C   0  0  0  0  0  0  0  0  0  0  0  0
  145.0640  152.0830  139.4920 N   0  0  0  0  0  0  0  0  0  0  0  0
  146.3950  151.8400  139.0530 C   0  0  0  0  0  0  0  0  0  0  0  0
  146.7690  150.6560  138.8380 O   0  0  0  0  0  0  0  0  0  0  0  0
  147.2650  152.9260  138.8740 O   0  0  0  0  0  0  0  0  0  0  0  0
  147.9180  153.2990  137.6520 C   0  0  0  0  0  0  0  0  0  0  0  0
  146.8880  153.7650  136.6030 C   0  0  0  0  0  0  0  0  0  0  0  0
  148.7530  152.1260  137.1050 C   0  0  0  0  0  0  0  0  0  0  0  0
  148.8570  154.4700  137.9830 C   0  0  0  0  0  0  0  0  0  0  0  0
  144.2350  153.2420  139.8670 C   0  0  0  0  0  0  0  0  0  0  0  0
  140.8350  153.5550  139.9250 C   0  0  0  0  0  0  0  0  0  0  0  0
  139.9780  154.3070  138.9000 C   0  0  0  0  0  0  0  0  0  0  0  0
  142.4650  158.2440  135.5510 C   0  0  0  0  0  0  0  0  0  0  0  0
  142.4790  158.0310  134.0380 C   0  0  0  0  0  0  0  0  0  0  0  0
  144.5290  155.9910  133.6420 C   0  0  0  0  0  0  0  0  0  0  0  0
  145.4930  155.0270  133.3300 C   0  0  0  0  0  0  0  0  0  0  0  0
  149.1479  159.7800  133.1335 H   0  0  0  0  0  0  0  0  0  0  0  0
  147.5583  160.8066  133.3556 H   0  0  0  0  0  0  0  0  0  0  0  0
  144.8401  160.2563  134.3963 H   0  0  0  0  0  0  0  0  0  0  0  0
  145.6680  160.6431  132.8498 H   0  0  0  0  0  0  0  0  0  0  0  0
  144.2084  159.5961  132.8498 H   0  0  0  0  0  0  0  0  0  0  0  0
  149.4589  156.2581  132.1959 H   0  0  0  0  0  0  0  0  0  0  0  0
  149.2484  158.0832  131.6911 H   0  0  0  0  0  0  0  0  0  0  0  0
  148.5540  151.6640  134.0790 H   0  0  0  0  0  0  0  0  0  0  0  0
  146.3787  152.0286  132.3052 H   0  0  0  0  0  0  0  0  0  0  0  0
  143.5458  152.4508  132.2280 H   0  0  0  0  0  0  0  0  0  0  0  0
  141.7622  154.1472  132.7427 H   0  0  0  0  0  0  0  0  0  0  0  0
  140.0661  156.9106  133.6261 H   0  0  0  0  0  0  0  0  0  0  0  0
  140.6216  155.2097  133.8421 H   0  0  0  0  0  0  0  0  0  0  0  0
  139.5609  156.6011  135.8571 H   0  0  0  0  0  0  0  0  0  0  0  0
  140.9636  155.4396  136.0857 H   0  0  0  0  0  0  0  0  0  0  0  0
  141.0760  156.7105  139.6035 H   0  0  0  0  0  0  0  0  0  0  0  0
  139.5749  156.9087  138.5992 H   0  0  0  0  0  0  0  0  0  0  0  0
  142.6025  155.2482  137.0194 H   0  0  0  0  0  0  0  0  0  0  0  0
  142.7546  155.2816  138.8260 H   0  0  0  0  0  0  0  0  0  0  0  0
  141.8053  152.9049  137.1557 H   0  0  0  0  0  0  0  0  0  0  0  0
  143.4446  153.1135  137.9168 H   0  0  0  0  0  0  0  0  0  0  0  0
  142.4488  152.5161  141.1425 H   0  0  0  0  0  0  0  0  0  0  0  0
  144.0066  150.5709  140.5961 H   0  0  0  0  0  0  0  0  0  0  0  0
  143.4750  150.6497  138.9750 H   0  0  0  0  0  0  0  0  0  0  0  0
  146.0004  154.1666  137.1138 H   0  0  0  0  0  0  0  0  0  0  0  0
  147.3347  154.5487  135.9735 H   0  0  0  0  0  0  0  0  0  0  0  0
  146.5942  152.9121  135.9735 H   0  0  0  0  0  0  0  0  0  0  0  0
  149.1654  151.5467  137.9443 H   0  0  0  0  0  0  0  0  0  0  0  0
  148.1133  151.4759  136.4900 H   0  0  0  0  0  0  0  0  0  0  0  0
  149.5767  152.5177  136.4900 H   0  0  0  0  0  0  0  0  0  0  0  0
  148.9413  154.5751  139.0747 H   0  0  0  0  0  0  0  0  0  0  0  0
  149.8515  154.2746  137.5556 H   0  0  0  0  0  0  0  0  0  0  0  0
  148.4502  155.3983  137.5556 H   0  0  0  0  0  0  0  0  0  0  0  0
  144.6329  153.7840  140.7376 H   0  0  0  0  0  0  0  0  0  0  0  0
  144.1372  154.0477  139.1245 H   0  0  0  0  0  0  0  0  0  0  0  0
  140.1848  152.8984  140.5218 H   0  0  0  0  0  0  0  0  0  0  0  0
  141.3369  154.2954  140.5653 H   0  0  0  0  0  0  0  0  0  0  0  0
  139.5131  153.5759  138.2223 H   0  0  0  0  0  0  0  0  0  0  0  0
  139.2186  154.8813  139.4509 H   0  0  0  0  0  0  0  0  0  0  0  0
  142.2813  159.3108  135.7465 H   0  0  0  0  0  0  0  0  0  0  0  0
  143.4409  157.9011  135.9251 H   0  0  0  0  0  0  0  0  0  0  0  0
  141.7411  158.6969  133.5668 H   0  0  0  0  0  0  0  0  0  0  0  0
  143.4807  158.2581  133.6443 H   0  0  0  0  0  0  0  0  0  0  0  0
  144.8234  156.9725  134.0419 H   0  0  0  0  0  0  0  0  0  0  0  0
  1  2  2  0
  2  3  1  0
  3  4  1  0
  2  5  1  0
  5  6  2  0
  5  7  1  0
  7  8  2  0
  7  9  1  0
  9 10  1  0
 10 11  1  0
 11 12  1  0
 11 13  2  0
 10 14  2  0
 14 15  1  0
 15 16  2  0
 16 17  1  0
 17 18  2  0
 18 19  1  0
 19 20  1  0
 20 21  1  0
 21 22  1  0
 22 23  1  0
 23 24  2  0
 23 25  1  0
 25 26  1  0
 26 27  1  0
 27 28  1  0
 28 29  1  0
 29 30  1  0
 30 31  1  0
 31 32  1  0
 32 33  1  0
 33 34  2  0
 33 35  1  0
 35 36  1  0
 36 37  1  0
 36 38  1  0
 36 39  1  0
 32 40  1  0
 29 41  1  0
 41 42  1  0
 22 43  1  0
 43 44  1  0
 18 45  1  0
 45 46  2  0
 46  9  1  0
 46 15  1  0
 44 19  1  0
 42 26  1  0
 40 30  1  0
  1 47  1  0
  1 48  1  0
  4 49  1  0
  4 50  1  0
  4 51  1  0
  6 52  1  0
  6 53  1  0
 12 54  1  0
 14 55  1  0
 16 56  1  0
 17 57  1  0
 20 58  1  0
 20 59  1  0
 21 60  1  0
 21 61  1  0
 25 62  1  0
 25 63  1  0
 27 64  1  0
 27 65  1  0
 28 66  1  0
 28 67  1  0
 30 68  1  0
 31 69  1  0
 31 70  1  0
 37 71  1  0
 37 72  1  0
 37 73  1  0
 38 74  1  0
 38 75  1  0
 38 76  1  0
 39 77  1  0
 39 78  1  0
 39 79  1  0
 40 80  1  0
 40 81  1  0
 41 82  1  0
 41 83  1  0
 42 84  1  0
 42 85  1  0
 43 86  1  0
 43 87  1  0
 44 88  1  0
 44 89  1  0
 45 90  1  0
M  CHG  1  12  -1
M  END
>  <UniqueID>  (32) 
32

>  <SMILES>  (32) 
C=C(OC)C(=C)C(=O)n1c(C([NH-])=O)cc2ccc(N3CCN(C(=O)CN4CCN(C5CN(C(=O)OC(C)(C)C)C5)CC4)CC3)cc21

>  <Energy>  (32) 
199.57453397348397

>  <Genealogy>  (32) 
C=C(OC)C(=C)C(=O)n1c(C([NH-])=O)cc2ccc(N3CCN(C(=O)CN4CCN(C5CN(C(=O)OC(C)(C)C)C5)CC4)CC3)cc21 (protonated)
C=C(OC)C(=C)C(=O)n1c(C([NH-])=O)cc2ccc(N3CCN(C(=O)CN4CCN(C5CN(C(=O)OC(C)(C)C)C5)CC4)CC3)cc21 (3D coordinates assigned)
C=C(OC)C(=C)C(=O)n1c(C([NH-])=O)cc2ccc(N3CCN(C(=O)CN4CCN(C5CN(C(=O)OC(C)(C)C)C5)CC4)CC3)cc21 (nonaromatic ring conformer: 199.57453397348397 kcal/mol)

>  <smiles>  (32) 
C=C(OC)C(=C)C(=O)n1c(C(N)=O)cc2ccc(N3CCN(C(=O)CN4CCN(C5CN(C(=O)OC(C)(C)C)C5)CC4)CC3)cc21

>  <score_type>  (32) 
oracle

>  <origin>  (32) 
adg

>  <m_score__min__energy>  (32) 
-10.779999999999999

>  <m_primary>  (32) 
energy

$$$$
33:0
     RDKit          3D

 39 41  0  0  0  0  0  0  0  0999 V2000
  141.4360  151.9910  132.2970 B   0  0  0  0  0  1  0  0  0  0  0  0
  141.7190  153.1000  133.3710 C   0  0  0  0  0  0  0  0  0  0  0  0
  141.9290  152.5410  134.8220 B   0  0  0  0  0  1  0  0  0  0  0  0
  140.7750  154.2780  133.2730 C   0  0  0  0  0  0  0  0  0  0  0  0
  141.8890  155.2200  133.3360 N   0  0  0  0  0  0  0  0  0  0  0  0
  142.0680  156.6010  133.6200 C   0  0  0  0  0  0  0  0  0  0  0  0
  141.0120  157.3570  134.0700 C   0  0  0  0  0  0  0  0  0  0  0  0
  141.2450  158.6820  134.3260 C   0  0  0  0  0  0  0  0  0  0  0  0
  142.4970  159.2220  134.1360 C   0  0  0  0  0  0  0  0  0  0  0  0
  142.9410  160.4910  134.3070 C   0  0  0  0  0  0  0  0  0  0  0  0
  144.3040  160.5440  133.9640 C   0  0  0  0  0  0  0  0  0  0  0  0
  145.0150  161.8010  134.0850 C   0  0  0  0  0  0  0  0  0  0  0  0
  146.4810  161.8100  134.0670 N   0  0  0  0  0  0  0  0  0  0  0  0
  144.5430  162.9450  134.2110 O   0  0  0  0  0  0  0  0  0  0  0  0
  144.6890  159.2940  133.5810 N   0  0  0  0  0  0  0  0  0  0  0  0
  145.9610  159.0110  133.0970 C   0  0  0  0  0  0  0  0  0  0  0  0
  146.3110  159.8540  132.1220 O   0  0  0  0  0  0  0  0  0  0  0  0
  147.0260  158.1100  133.3120 C   0  0  0  0  0  0  0  0  0  0  0  0
  146.5930  156.7830  133.2480 C   0  0  0  0  0  0  0  0  0  0  0  0
  148.4570  158.2210  133.5240 C   0  0  0  0  0  0  0  0  0  0  0  0
  148.8960  159.5670  133.5820 O   0  0  0  0  0  0  0  0  0  0  0  0
  143.5840  158.4940  133.6870 C   0  0  0  0  0  0  0  0  0  0  0  0
  143.3210  157.1670  133.4370 C   0  0  0  0  0  0  0  0  0  0  0  0
  142.7580  154.1280  132.9810 C   0  0  0  0  0  0  0  0  0  0  0  0
  140.2125  154.3185  132.3286 H   0  0  0  0  0  0  0  0  0  0  0  0
  139.9428  154.3700  133.9865 H   0  0  0  0  0  0  0  0  0  0  0  0
  140.0162  156.9140  134.2191 H   0  0  0  0  0  0  0  0  0  0  0  0
  140.4248  159.3202  134.6865 H   0  0  0  0  0  0  0  0  0  0  0  0
  142.3350  161.3399  134.6566 H   0  0  0  0  0  0  0  0  0  0  0  0
  146.9890  161.4000  133.2510 H   0  0  0  0  0  0  0  0  0  0  0  0
  146.9700  162.2370  134.8920 H   0  0  0  0  0  0  0  0  0  0  0  0
  147.3107  155.9626  133.3958 H   0  0  0  0  0  0  0  0  0  0  0  0
  145.5345  156.5588  133.0498 H   0  0  0  0  0  0  0  0  0  0  0  0
  148.7122  157.7259  134.4726 H   0  0  0  0  0  0  0  0  0  0  0  0
  148.9587  157.7432  132.6696 H   0  0  0  0  0  0  0  0  0  0  0  0
  148.2200  160.1010  133.1040 H   0  0  0  0  0  0  0  0  0  0  0  0
  144.1399  156.5271  133.0764 H   0  0  0  0  0  0  0  0  0  0  0  0
  143.0223  154.1043  131.9135 H   0  0  0  0  0  0  0  0  0  0  0  0
  143.7621  154.0733  133.4268 H   0  0  0  0  0  0  0  0  0  0  0  0
  1  2  1  0
  2  3  1  0
  2  4  1  0
  4  5  1  0
  5  6  1  0
  6  7  2  0
  7  8  1  0
  8  9  2  0
  9 10  1  0
 10 11  2  0
 11 12  1  0
 12 13  1  0
 12 14  2  0
 11 15  1  0
 15 16  1  0
 16 17  2  0
 16 18  1  0
 18 19  2  0
 18 20  1  0
 20 21  1  0
 15 22  1  0
 22 23  2  0
  5 24  1  0
 24  2  1  0
 23  6  1  0
 22  9  1  0
  4 25  1  0
  4 26  1  0
  7 27  1  0
  8 28  1  0
 10 29  1  0
 13 30  1  0
 13 31  1  0
 19 32  1  0
 19 33  1  0
 20 34  1  0
 20 35  1  0
 21 36  1  0
 23 37  1  0
 24 38  1  0
 24 39  1  0
M  RAD  2   1   3   3   3
M  END
>  <smiles>  (33) 
[B]C1([B])CN(c2ccc3cc(C(N)=O)n(C(=O)C(=C)CO)c3c2)C1

>  <score_type>  (33) 
oracle

>  <origin>  (33) 
adg

>  <m_score__min__energy>  (33) 
-8.5800000000000001

>  <m_primary>  (33) 
energy

$$$$
34:0
     RDKit          3D

 32 33  0  0  0  0  0  0  0  0999 V2000
  144.4480  153.6670  136.9840 N   0  0  0  0  0  0  0  0  0  0  0  0
  144.0040  154.1040  135.6990 C   0  0  0  0  0  0  0  0  0  0  0  0
  143.0500  153.4970  135.1430 O   0  0  0  0  0  0  0  0  0  0  0  0
  144.6630  155.2400  135.0140 C   0  0  0  0  0  0  0  0  0  0  0  0
  143.9870  156.3400  134.4880 C   0  0  0  0  0  0  0  0  0  0  0  0
  144.9660  157.1790  134.0110 C   0  0  0  0  0  0  0  0  0  0  0  0
  144.8570  158.4080  133.3680 C   0  0  0  0  0  0  0  0  0  0  0  0
  146.0390  159.0430  132.9530 C   0  0  0  0  0  0  0  0  0  0  0  0
  147.3050  158.4490  133.1930 C   0  0  0  0  0  0  0  0  0  0  0  0
  148.5630  159.1090  132.6920 C   0  0  0  0  0  0  0  0  0  0  0  0
  149.4130  158.1770  132.1220 F   0  0  0  0  0  0  0  0  0  0  0  0
  148.2640  160.0640  131.7350 F   0  0  0  0  0  0  0  0  0  0  0  0
  149.2090  159.7190  133.7510 F   0  0  0  0  0  0  0  0  0  0  0  0
  147.3710  157.1850  133.8250 C   0  0  0  0  0  0  0  0  0  0  0  0
  146.1790  156.5860  134.2480 C   0  0  0  0  0  0  0  0  0  0  0  0
  146.0100  155.3980  134.8700 N   0  0  0  0  0  0  0  0  0  0  0  0
  147.0360  154.4630  135.2480 C   0  0  0  0  0  0  0  0  0  0  0  0
  147.6440  153.8130  134.3560 O   0  0  0  0  0  0  0  0  0  0  0  0
  147.4150  154.2540  136.6840 C   0  0  0  0  0  0  0  0  0  0  0  0
  146.9930  152.9780  137.1080 O   0  0  0  0  0  0  0  0  0  0  0  0
  146.8290  152.9980  138.8040 P   0  0  0  0  0  0  0  0  0  0  0  0
  147.6490  151.8840  139.4140 O   0  0  0  0  0  0  0  0  0  0  0  0
  147.3910  154.4810  139.3920 O   0  0  0  0  0  0  0  0  0  0  0  0
  145.2050  152.8120  139.2430 O   0  0  0  0  0  0  0  0  0  0  0  0
  145.1890  154.1810  137.5100 H   0  0  0  0  0  0  0  0  0  0  0  0
  143.9990  152.8400  137.4390 H   0  0  0  0  0  0  0  0  0  0  0  0
  142.8994  156.5024  134.4605 H   0  0  0  0  0  0  0  0  0  0  0  0
  143.8741  158.8687  133.1899 H   0  0  0  0  0  0  0  0  0  0  0  0
  145.9826  160.0122  132.4359 H   0  0  0  0  0  0  0  0  0  0  0  0
  148.3379  156.6841  133.9805 H   0  0  0  0  0  0  0  0  0  0  0  0
  148.5073  154.3308  136.7883 H   0  0  0  0  0  0  0  0  0  0  0  0
  146.9287  155.0219  137.3036 H   0  0  0  0  0  0  0  0  0  0  0  0
  1  2  1  0
  2  3  2  0
  2  4  1  0
  4  5  2  0
  5  6  1  0
  6  7  2  0
  7  8  1  0
  8  9  2  0
  9 10  1  0
 10 11  1  0
 10 12  1  0
 10 13  1  0
  9 14  1  0
 14 15  2  0
 15 16  1  0
 16 17  1  0
 17 18  2  0
 17 19  1  0
 19 20  1  0
 20 21  1  0
 21 22  2  0
 21 23  1  0
 21 24  1  0
 16  4  1  0
 15  6  1  0
  1 25  1  0
  1 26  1  0
  5 27  1  0
  7 28  1  0
  8 29  1  0
 14 30  1  0
 19 31  1  0
 19 32  1  0
M  CHG  2  23  -1  24  -1
M  END
>  <UniqueID>  (34) 
33

>  <SMILES>  (34) 
NC(=O)c1cc2ccc(C(F)(F)F)cc2n1C(=O)COP(=O)([O-])[O-]

>  <Energy>  (34) 
70.0852014731026

>  <Genealogy>  (34) 
NC(=O)c1cc2ccc(C(F)(F)F)cc2n1C(=O)COP(=O)([O-])[O-] (protonated)
NC(=O)c1cc2ccc(C(F)(F)F)cc2n1C(=O)COP(=O)([O-])[O-] (3D coordinates assigned)
NC(=O)c1cc2ccc(C(F)(F)F)cc2n1C(=O)COP(=O)([O-])[O-] (optimized conformer: 70.0852014731026 kcal/mol)

>  <smiles>  (34) 
NC(=O)c1cc2ccc(C(F)(F)F)cc2n1C(=O)COP(=O)(O)O

>  <score_type>  (34) 
oracle

>  <origin>  (34) 
adg

>  <m_score__min__energy>  (34) 
-6.0899999999999999

>  <m_primary>  (34) 
energy

$$$$
35:0
     RDKit          3D

 42 43  0  0  0  0  0  0  0  0999 V2000
  138.7170  149.2050  129.2150 C   0  0  0  0  0  0  0  0  0  0  0  0
  139.4460  148.6620  130.3690 N   0  0  0  0  0  0  0  0  0  0  0  0
  139.5170  147.2090  130.5660 C   0  0  0  0  0  0  0  0  0  0  0  0
  140.1050  149.5800  131.2730 C   0  0  0  0  0  0  0  0  0  0  0  0
  140.0410  150.8220  131.0540 O   0  0  0  0  0  0  0  0  0  0  0  0
  140.8560  149.1170  132.4960 C   0  0  0  0  0  0  0  0  0  0  0  0
  142.3690  149.3070  132.3440 C   0  0  0  0  0  0  0  0  0  0  0  0
  142.7320  150.6730  132.5420 O   0  0  0  0  0  0  0  0  0  0  0  0
  144.0500  151.1420  132.5280 C   0  0  0  0  0  0  0  0  0  0  0  0
  144.9930  150.3520  132.2470 O   0  0  0  0  0  0  0  0  0  0  0  0
  144.3340  152.5260  132.8160 N   0  0  0  0  0  0  0  0  0  0  0  0
  143.4540  153.5180  133.1500 C   0  0  0  0  0  0  0  0  0  0  0  0
  141.9830  153.3980  133.2430 C   0  0  0  0  0  0  0  0  0  0  0  0
  141.2630  152.6450  132.2650 N   0  0  0  0  0  0  0  0  0  0  0  0
  141.3570  153.9060  134.2090 O   0  0  0  0  0  0  0  0  0  0  0  0
  144.1320  154.6940  133.4610 C   0  0  0  0  0  0  0  0  0  0  0  0
  145.4630  154.4050  133.2870 C   0  0  0  0  0  0  0  0  0  0  0  0
  146.5790  155.2180  133.4490 C   0  0  0  0  0  0  0  0  0  0  0  0
  147.8430  154.6640  133.1880 C   0  0  0  0  0  0  0  0  0  0  0  0
  147.9680  153.3200  132.7510 C   0  0  0  0  0  0  0  0  0  0  0  0
  149.3320  152.7210  132.5120 C   0  0  0  0  0  0  0  0  0  0  0  0
  150.2380  153.7370  132.2480 F   0  0  0  0  0  0  0  0  0  0  0  0
  149.3020  151.8500  131.4330 F   0  0  0  0  0  0  0  0  0  0  0  0
  149.7550  152.0150  133.6270 F   0  0  0  0  0  0  0  0  0  0  0  0
  146.8110  152.5200  132.6250 C   0  0  0  0  0  0  0  0  0  0  0  0
  145.5620  153.0930  132.9000 C   0  0  0  0  0  0  0  0  0  0  0  0
  137.8817  149.8272  129.5687 H   0  0  0  0  0  0  0  0  0  0  0  0
  139.3982  149.8175  128.6061 H   0  0  0  0  0  0  0  0  0  0  0  0
  138.3252  148.3769  128.6061 H   0  0  0  0  0  0  0  0  0  0  0  0
  139.5279  146.9851  131.6429 H   0  0  0  0  0  0  0  0  0  0  0  0
  138.6411  146.7327  130.1013 H   0  0  0  0  0  0  0  0  0  0  0  0
  140.4352  146.8204  130.1013 H   0  0  0  0  0  0  0  0  0  0  0  0
  140.5106  149.6955  133.3655 H   0  0  0  0  0  0  0  0  0  0  0  0
  140.6593  148.0431  132.6304 H   0  0  0  0  0  0  0  0  0  0  0  0
  142.8870  148.6849  133.0888 H   0  0  0  0  0  0  0  0  0  0  0  0
  142.6606  149.0093  131.3260 H   0  0  0  0  0  0  0  0  0  0  0  0
  140.2270  152.5310  132.3500 H   0  0  0  0  0  0  0  0  0  0  0  0
  141.7480  152.2400  131.4320 H   0  0  0  0  0  0  0  0  0  0  0  0
  143.6940  155.6517  133.7788 H   0  0  0  0  0  0  0  0  0  0  0  0
  146.4752  156.2643  133.7721 H   0  0  0  0  0  0  0  0  0  0  0  0
  148.7452  155.2784  133.3238 H   0  0  0  0  0  0  0  0  0  0  0  0
  146.8887  151.4669  132.3168 H   0  0  0  0  0  0  0  0  0  0  0  0
  1  2  1  0
  2  3  1  0
  2  4  1  0
  4  5  2  0
  4  6  1  0
  6  7  1  0
  7  8  1  0
  8  9  1  0
  9 10  2  0
  9 11  1  0
 11 12  1  0
 12 13  1  0
 13 14  1  0
 13 15  2  0
 12 16  2  0
 16 17  1  0
 17 18  2  0
 18 19  1  0
 19 20  2  0
 20 21  1  0
 21 22  1  0
 21 23  1  0
 21 24  1  0
 20 25  1  0
 25 26  2  0
 26 11  1  0
 26 17  1  0
  1 27  1  0
  1 28  1  0
  1 29  1  0
  3 30  1  0
  3 31  1  0
  3 32  1  0
  6 33  1  0
  6 34  1  0
  7 35  1  0
  7 36  1  0
 14 37  1  0
 14 38  1  0
 16 39  1  0
 18 40  1  0
 19 41  1  0
 25 42  1  0
M  END
>  <UniqueID>  (35) 
34

>  <SMILES>  (35) 
CN(C)C(=O)CCOC(=O)n1c(C(N)=O)cc2ccc(C(F)(F)F)cc21

>  <Energy>  (35) 
76.44446731688862

>  <Genealogy>  (35) 
CN(C)C(=O)CCOC(=O)n1c(C(N)=O)cc2ccc(C(F)(F)F)cc21 (3D coordinates assigned)
CN(C)C(=O)CCOC(=O)n1c(C(N)=O)cc2ccc(C(F)(F)F)cc21 (optimized conformer: 76.44446731688862 kcal/mol)

>  <smiles>  (35) 
CN(C)C(=O)CCOC(=O)n1c(C(N)=O)cc2ccc(C(F)(F)F)cc21

>  <score_type>  (35) 
oracle

>  <origin>  (35) 
adg

>  <m_score__min__energy>  (35) 
-6.5

>  <m_primary>  (35) 
energy

$$$$
36:0
     RDKit          3D

 37 38  0  0  0  0  0  0  0  0999 V2000
  148.5770  155.9100  132.9740 C   0  0  0  0  0  0  0  0  0  0  0  0
  147.7610  157.1650  133.0780 C   0  0  0  0  0  0  0  0  0  0  0  0
  148.4010  158.4270  133.0680 C   0  0  0  0  0  0  0  0  0  0  0  0
  147.6540  159.6080  133.2150 C   0  0  0  0  0  0  0  0  0  0  0  0
  146.2760  159.4930  133.3760 C   0  0  0  0  0  0  0  0  0  0  0  0
  145.3250  160.4680  133.5710 C   0  0  0  0  0  0  0  0  0  0  0  0
  144.1170  159.7840  133.6920 C   0  0  0  0  0  0  0  0  0  0  0  0
  142.8020  160.4510  133.8220 C   0  0  0  0  0  0  0  0  0  0  0  0
  141.6280  159.6970  134.1270 N   0  0  0  0  0  0  0  0  0  0  0  0
  142.7160  161.7010  133.6970 O   0  0  0  0  0  0  0  0  0  0  0  0
  144.3130  158.4410  133.5770 N   0  0  0  0  0  0  0  0  0  0  0  0
  143.3320  157.4020  133.7260 C   0  0  0  0  0  0  0  0  0  0  0  0
  142.9600  156.7360  132.7220 O   0  0  0  0  0  0  0  0  0  0  0  0
  142.8050  157.1220  134.9910 O   0  0  0  0  0  0  0  0  0  0  0  0
  141.9120  156.0390  135.2300 C   0  0  0  0  0  0  0  0  0  0  0  0
  140.6000  156.3990  134.8100 O   0  0  0  0  0  0  0  0  0  0  0  0
  139.9570  157.5640  135.2400 C   0  0  0  0  0  0  0  0  0  0  0  0
  139.4790  158.3820  134.4080 O   0  0  0  0  0  0  0  0  0  0  0  0
  139.8740  157.8580  136.7020 C   0  0  0  0  0  0  0  0  0  0  0  0
  140.7410  159.0270  137.0340 C   0  0  0  0  0  0  0  0  0  0  0  0
  140.6040  160.1140  136.4130 O   0  0  0  0  0  0  0  0  0  0  0  0
  141.6730  158.9340  138.0610 O   0  0  0  0  0  0  0  0  0  0  0  0
  145.6410  158.2780  133.3850 C   0  0  0  0  0  0  0  0  0  0  0  0
  146.3630  157.0850  133.2580 C   0  0  0  0  0  0  0  0  0  0  0  0
  148.8156  155.5431  133.9832 H   0  0  0  0  0  0  0  0  0  0  0  0
  148.0038  155.1439  132.4313 H   0  0  0  0  0  0  0  0  0  0  0  0
  149.5098  156.1231  132.4313 H   0  0  0  0  0  0  0  0  0  0  0  0
  149.4925  158.4840  132.9441 H   0  0  0  0  0  0  0  0  0  0  0  0
  148.1431  160.5932  133.2032 H   0  0  0  0  0  0  0  0  0  0  0  0
  145.4843  161.5553  133.6207 H   0  0  0  0  0  0  0  0  0  0  0  0
  140.7120  160.1830  134.2480 H   0  0  0  0  0  0  0  0  0  0  0  0
  141.6550  158.6560  134.1960 H   0  0  0  0  0  0  0  0  0  0  0  0
  142.2477  155.1566  134.6655 H   0  0  0  0  0  0  0  0  0  0  0  0
  141.9000  155.8063  136.3050 H   0  0  0  0  0  0  0  0  0  0  0  0
  138.8322  158.0887  136.9693 H   0  0  0  0  0  0  0  0  0  0  0  0
  140.2169  156.9797  137.2686 H   0  0  0  0  0  0  0  0  0  0  0  0
  145.8541  156.1106  133.2975 H   0  0  0  0  0  0  0  0  0  0  0  0
  1  2  1  0
  2  3  2  0
  3  4  1  0
  4  5  2  0
  5  6  1  0
  6  7  2  0
  7  8  1  0
  8  9  1  0
  8 10  2  0
  7 11  1  0
 11 12  1  0
 12 13  2  0
 12 14  1  0
 14 15  1  0
 15 16  1  0
 16 17  1  0
 17 18  2  0
 17 19  1  0
 19 20  1  0
 20 21  2  0
 20 22  1  0
 11 23  1  0
 23 24  2  0
 24  2  1  0
 23  5  1  0
  1 25  1  0
  1 26  1  0
  1 27  1  0
  3 28  1  0
  4 29  1  0
  6 30  1  0
  9 31  1  0
  9 32  1  0
 15 33  1  0
 15 34  1  0
 19 35  1  0
 19 36  1  0
 24 37  1  0
M  CHG  1  22  -1
M  END
>  <UniqueID>  (36) 
35

>  <SMILES>  (36) 
Cc1ccc2cc(C(N)=O)n(C(=O)OCOC(=O)CC(=O)[O-])c2c1

>  <Energy>  (36) 
68.66684451669329

>  <Genealogy>  (36) 
Cc1ccc2cc(C(N)=O)n(C(=O)OCOC(=O)CC(=O)[O-])c2c1 (protonated)
Cc1ccc2cc(C(N)=O)n(C(=O)OCOC(=O)CC(=O)[O-])c2c1 (3D coordinates assigned)
Cc1ccc2cc(C(N)=O)n(C(=O)OCOC(=O)CC(=O)[O-])c2c1 (optimized conformer: 68.66684451669329 kcal/mol)

>  <smiles>  (36) 
Cc1ccc2cc(C(N)=O)n(C(=O)OCOC(=O)CC(=O)O)c2c1

>  <score_type>  (36) 
oracle

>  <origin>  (36) 
adg

>  <m_score__min__energy>  (36) 
-6.6900000000000004

>  <m_primary>  (36) 
energy

$$$$
37:0
     RDKit          3D

 40 41  0  0  0  0  0  0  0  0999 V2000
  149.5850  160.1640  130.1250 C   0  0  0  0  0  0  0  0  0  0  0  0
  149.5000  159.7610  131.3960 C   0  0  0  0  0  0  0  0  0  0  0  0
  148.4320  160.2820  132.3100 C   0  0  0  0  0  0  0  0  0  0  0  0
  148.5440  159.6530  133.5830 O   0  0  0  0  0  0  0  0  0  0  0  0
  148.0430  158.3740  133.8380 C   0  0  0  0  0  0  0  0  0  0  0  0
  148.4360  157.7200  134.8420 O   0  0  0  0  0  0  0  0  0  0  0  0
  147.0610  157.7840  132.9170 C   0  0  0  0  0  0  0  0  0  0  0  0
  147.4630  157.2180  131.8650 O   0  0  0  0  0  0  0  0  0  0  0  0
  145.6560  157.8080  133.2180 N   0  0  0  0  0  0  0  0  0  0  0  0
  144.7870  156.7590  133.2450 C   0  0  0  0  0  0  0  0  0  0  0  0
  145.1600  155.3350  133.0820 C   0  0  0  0  0  0  0  0  0  0  0  0
  145.8680  154.8920  131.9220 N   0  0  0  0  0  0  0  0  0  0  0  0
  144.8370  154.4940  133.9610 O   0  0  0  0  0  0  0  0  0  0  0  0
  143.5000  157.2050  133.5420 C   0  0  0  0  0  0  0  0  0  0  0  0
  143.6130  158.5680  133.7030 C   0  0  0  0  0  0  0  0  0  0  0  0
  142.6470  159.5180  134.0090 C   0  0  0  0  0  0  0  0  0  0  0  0
  143.0480  160.8620  134.1030 C   0  0  0  0  0  0  0  0  0  0  0  0
  144.4040  161.2430  133.8900 C   0  0  0  0  0  0  0  0  0  0  0  0
  144.8080  162.6340  133.9830 N   0  0  0  0  0  0  0  0  0  0  0  0
  143.9370  163.7000  133.4700 C   0  0  0  0  0  0  0  0  0  0  0  0
  146.0930  163.0000  134.5910 C   0  0  0  0  0  0  0  0  0  0  0  0
  145.3540  160.2330  133.5820 C   0  0  0  0  0  0  0  0  0  0  0  0
  144.9250  158.9050  133.5060 C   0  0  0  0  0  0  0  0  0  0  0  0
  150.3779  159.7670  129.4740 H   0  0  0  0  0  0  0  0  0  0  0  0
  148.8621  160.8928  129.7296 H   0  0  0  0  0  0  0  0  0  0  0  0
  150.2287  159.0318  131.7797 H   0  0  0  0  0  0  0  0  0  0  0  0
  148.5491  161.3694  132.4274 H   0  0  0  0  0  0  0  0  0  0  0  0
  147.4438  160.0624  131.8797 H   0  0  0  0  0  0  0  0  0  0  0  0
  146.2100  155.5650  131.2030 H   0  0  0  0  0  0  0  0  0  0  0  0
  146.0940  153.8790  131.8040 H   0  0  0  0  0  0  0  0  0  0  0  0
  142.5875  156.5970  133.6293 H   0  0  0  0  0  0  0  0  0  0  0  0
  141.5989  159.2272  134.1730 H   0  0  0  0  0  0  0  0  0  0  0  0
  142.3017  161.6330  134.3452 H   0  0  0  0  0  0  0  0  0  0  0  0
  143.4905  164.2465  134.3138 H   0  0  0  0  0  0  0  0  0  0  0  0
  144.5297  164.3941  132.8561 H   0  0  0  0  0  0  0  0  0  0  0  0
  143.1387  163.2576  132.8561 H   0  0  0  0  0  0  0  0  0  0  0  0
  146.0009  162.9738  135.6868 H   0  0  0  0  0  0  0  0  0  0  0  0
  146.8666  162.2865  134.2709 H   0  0  0  0  0  0  0  0  0  0  0  0
  146.3745  164.0140  134.2709 H   0  0  0  0  0  0  0  0  0  0  0  0
  146.4087  160.4914  133.4064 H   0  0  0  0  0  0  0  0  0  0  0  0
  1  2  2  0
  2  3  1  0
  3  4  1  0
  4  5  1  0
  5  6  2  0
  5  7  1  0
  7  8  2  0
  7  9  1  0
  9 10  1  0
 10 11  1  0
 11 12  1  0
 11 13  2  0
 10 14  2  0
 14 15  1  0
 15 16  2  0
 16 17  1  0
 17 18  2  0
 18 19  1  0
 19 20  1  0
 19 21  1  0
 18 22  1  0
 22 23  2  0
 23  9  1  0
 23 15  1  0
  1 24  1  0
  1 25  1  0
  2 26  1  0
  3 27  1  0
  3 28  1  0
 12 29  1  0
 12 30  1  0
 14 31  1  0
 16 32  1  0
 17 33  1  0
 20 34  1  0
 20 35  1  0
 20 36  1  0
 21 37  1  0
 21 38  1  0
 21 39  1  0
 22 40  1  0
M  END
>  <UniqueID>  (37) 
36

>  <SMILES>  (37) 
C=CCOC(=O)C(=O)n1c(C(N)=O)cc2ccc(N(C)C)cc21

>  <Energy>  (37) 
75.07791189992332

>  <Genealogy>  (37) 
C=CCOC(=O)C(=O)n1c(C(N)=O)cc2ccc(N(C)C)cc21 (3D coordinates assigned)
C=CCOC(=O)C(=O)n1c(C(N)=O)cc2ccc(N(C)C)cc21 (optimized conformer: 75.07791189992332 kcal/mol)

>  <smiles>  (37) 
C=CCOC(=O)C(=O)n1c(C(N)=O)cc2ccc(N(C)C)cc21

>  <score_type>  (37) 
oracle

>  <origin>  (37) 
adg

>  <m_score__min__energy>  (37) 
-6.9800000000000004

>  <m_primary>  (37) 
energy

$$$$
38:0
     RDKit          3D

 32 33  0  0  0  0  0  0  0  0999 V2000
  147.8430  155.1380  132.5880 C   0  0  0  0  0  0  0  0  0  0  0  0
  147.6590  156.6130  132.7930 C   0  0  0  0  0  0  0  0  0  0  0  0
  148.7860  157.4700  132.7830 C   0  0  0  0  0  0  0  0  0  0  0  0
  148.6390  158.8480  133.0130 C   0  0  0  0  0  0  0  0  0  0  0  0
  147.3570  159.3360  133.2510 C   0  0  0  0  0  0  0  0  0  0  0  0
  146.9340  160.6170  133.5270 C   0  0  0  0  0  0  0  0  0  0  0  0
  145.5530  160.5230  133.6900 C   0  0  0  0  0  0  0  0  0  0  0  0
  144.6780  161.6930  133.9190 C   0  0  0  0  0  0  0  0  0  0  0  0
  143.2710  161.5780  133.7200 N   0  0  0  0  0  0  0  0  0  0  0  0
  145.1560  162.7900  134.3180 O   0  0  0  0  0  0  0  0  0  0  0  0
  145.1400  159.2320  133.5290 N   0  0  0  0  0  0  0  0  0  0  0  0
  143.8090  158.7080  133.6460 C   0  0  0  0  0  0  0  0  0  0  0  0
  143.2580  158.1670  132.6480 O   0  0  0  0  0  0  0  0  0  0  0  0
  143.1290  158.8300  134.8640 O   0  0  0  0  0  0  0  0  0  0  0  0
  141.7830  159.1920  135.0010 C   0  0  0  0  0  0  0  0  0  0  0  0
  141.0640  159.4370  133.9940 O   0  0  0  0  0  0  0  0  0  0  0  0
  141.2030  159.3240  136.3710 C   0  0  0  0  0  0  0  0  0  0  0  0
  140.2340  158.2150  136.6220 C   0  0  0  0  0  0  0  0  0  0  0  0
  140.5280  157.2870  137.4230 O   0  0  0  0  0  0  0  0  0  0  0  0
  139.0270  158.1780  135.9360 O   0  0  0  0  0  0  0  0  0  0  0  0
  146.2550  158.5200  133.2580 C   0  0  0  0  0  0  0  0  0  0  0  0
  146.3750  157.1410  133.0500 C   0  0  0  0  0  0  0  0  0  0  0  0
  147.9055  154.6370  133.5653 H   0  0  0  0  0  0  0  0  0  0  0  0
  146.9880  154.7367  132.0242 H   0  0  0  0  0  0  0  0  0  0  0  0
  148.7704  154.9590  132.0242 H   0  0  0  0  0  0  0  0  0  0  0  0
  149.7860  157.0529  132.5934 H   0  0  0  0  0  0  0  0  0  0  0  0
  149.5095  159.5204  133.0053 H   0  0  0  0  0  0  0  0  0  0  0  0
  147.5543  161.5223  133.6027 H   0  0  0  0  0  0  0  0  0  0  0  0
  142.8120  160.6430  133.6630 H   0  0  0  0  0  0  0  0  0  0  0  0
  142.0115  159.2774  137.1154 H   0  0  0  0  0  0  0  0  0  0  0  0
  140.6790  160.2878  136.4511 H   0  0  0  0  0  0  0  0  0  0  0  0
  145.4921  156.4859  133.0858 H   0  0  0  0  0  0  0  0  0  0  0  0
  1  2  1  0
  2  3  2  0
  3  4  1  0
  4  5  2  0
  5  6  1  0
  6  7  2  0
  7  8  1  0
  8  9  1  0
  8 10  2  0
  7 11  1  0
 11 12  1  0
 12 13  2  0
 12 14  1  0
 14 15  1  0
 15 16  2  0
 15 17  1  0
 17 18  1  0
 18 19  2  0
 18 20  1  0
 11 21  1  0
 21 22  2  0
 22  2  1  0
 21  5  1  0
  1 23  1  0
  1 24  1  0
  1 25  1  0
  3 26  1  0
  4 27  1  0
  6 28  1  0
  9 29  1  0
 17 30  1  0
 17 31  1  0
 22 32  1  0
M  CHG  2   9  -1  20  -1
M  END
>  <UniqueID>  (38) 
37

>  <SMILES>  (38) 
Cc1ccc2cc(C([NH-])=O)n(C(=O)OC(=O)CC(=O)[O-])c2c1

>  <Energy>  (38) 
68.68747606632579

>  <Genealogy>  (38) 
Cc1ccc2cc(C([NH-])=O)n(C(=O)OC(=O)CC(=O)[O-])c2c1 (protonated)
Cc1ccc2cc(C([NH-])=O)n(C(=O)OC(=O)CC(=O)[O-])c2c1 (3D coordinates assigned)
Cc1ccc2cc(C([NH-])=O)n(C(=O)OC(=O)CC(=O)[O-])c2c1 (optimized conformer: 68.68747606632579 kcal/mol)

>  <smiles>  (38) 
Cc1ccc2cc(C(N)=O)n(C(=O)OC(=O)CC(=O)O)c2c1

>  <score_type>  (38) 
oracle

>  <origin>  (38) 
adg

>  <m_score__min__energy>  (38) 
-6.2800000000000002

>  <m_primary>  (38) 
energy

$$$$
39:0
     RDKit          3D

 38 40  0  0  0  0  0  0  0  0999 V2000
  139.0970  157.7830  134.1010 C   0  0  0  0  0  0  0  0  0  0  0  0
  140.1160  158.6850  134.5130 O   0  0  0  0  0  0  0  0  0  0  0  0
  140.8720  159.4330  133.6050 C   0  0  0  0  0  0  0  0  0  0  0  0
  140.3390  160.3630  132.9400 O   0  0  0  0  0  0  0  0  0  0  0  0
  142.2960  159.1310  133.4260 C   0  0  0  0  0  0  0  0  0  0  0  0
  142.8560  157.9440  132.9860 C   0  0  0  0  0  0  0  0  0  0  0  0
  144.1930  158.0890  132.9660 N   0  0  0  0  0  0  0  0  0  0  0  0
  144.4980  159.3110  133.3800 N   0  0  0  0  0  0  0  0  0  0  0  0
  145.8340  159.8250  133.4760 C   0  0  0  0  0  0  0  0  0  0  0  0
  146.0380  160.9460  134.0170 O   0  0  0  0  0  0  0  0  0  0  0  0
  146.9440  159.0810  132.9530 N   0  0  0  0  0  0  0  0  0  0  0  0
  147.2720  157.7820  133.2030 C   0  0  0  0  0  0  0  0  0  0  0  0
  146.4670  156.8220  133.9870 C   0  0  0  0  0  0  0  0  0  0  0  0
  145.4930  155.9930  133.3570 N   0  0  0  0  0  0  0  0  0  0  0  0
  146.6610  156.7100  135.2270 O   0  0  0  0  0  0  0  0  0  0  0  0
  148.4670  157.4510  132.5650 C   0  0  0  0  0  0  0  0  0  0  0  0
  148.8640  158.5980  131.9140 C   0  0  0  0  0  0  0  0  0  0  0  0
  149.9860  158.8420  131.1260 C   0  0  0  0  0  0  0  0  0  0  0  0
  150.1490  160.1330  130.5960 C   0  0  0  0  0  0  0  0  0  0  0  0
  149.2070  161.1540  130.8780 C   0  0  0  0  0  0  0  0  0  0  0  0
  149.3750  162.5180  130.2790 C   0  0  0  0  0  0  0  0  0  0  0  0
  148.0750  160.8660  131.6700 C   0  0  0  0  0  0  0  0  0  0  0  0
  147.9290  159.5680  132.1700 C   0  0  0  0  0  0  0  0  0  0  0  0
  143.3620  159.9780  133.6640 C   0  0  0  0  0  0  0  0  0  0  0  0
  138.6092  157.3512  134.9874 H   0  0  0  0  0  0  0  0  0  0  0  0
  138.3514  158.3225  133.4985 H   0  0  0  0  0  0  0  0  0  0  0  0
  139.5420  156.9775  133.4985 H   0  0  0  0  0  0  0  0  0  0  0  0
  142.3022  157.0372  132.7014 H   0  0  0  0  0  0  0  0  0  0  0  0
  144.8840  157.3610  132.6770 H   0  0  0  0  0  0  0  0  0  0  0  0
  145.2020  156.1620  132.3680 H   0  0  0  0  0  0  0  0  0  0  0  0
  148.9832  156.4797  132.5787 H   0  0  0  0  0  0  0  0  0  0  0  0
  150.7214  158.0491  130.9249 H   0  0  0  0  0  0  0  0  0  0  0  0
  151.0160  160.3535  129.9560 H   0  0  0  0  0  0  0  0  0  0  0  0
  149.4667  163.2629  131.0832 H   0  0  0  0  0  0  0  0  0  0  0  0
  150.2822  162.5362  129.6571 H   0  0  0  0  0  0  0  0  0  0  0  0
  148.4994  162.7558  129.6571 H   0  0  0  0  0  0  0  0  0  0  0  0
  147.3269  161.6423  131.8884 H   0  0  0  0  0  0  0  0  0  0  0  0
  143.2948  161.0157  134.0227 H   0  0  0  0  0  0  0  0  0  0  0  0
  1  2  1  0
  2  3  1  0
  3  4  2  0
  3  5  1  0
  5  6  1  0
  6  7  2  0
  7  8  1  0
  8  9  1  0
  9 10  2  0
  9 11  1  0
 11 12  1  0
 12 13  1  0
 13 14  1  0
 13 15  2  0
 12 16  2  0
 16 17  1  0
 17 18  2  0
 18 19  1  0
 19 20  2  0
 20 21  1  0
 20 22  1  0
 22 23  2  0
  8 24  1  0
 24  5  2  0
 23 11  1  0
 23 17  1  0
  1 25  1  0
  1 26  1  0
  1 27  1  0
  6 28  1  0
  7 29  1  0
 14 30  1  0
 16 31  1  0
 18 32  1  0
 19 33  1  0
 21 34  1  0
 21 35  1  0
 21 36  1  0
 22 37  1  0
 24 38  1  0
M  CHG  2   7   1  14  -1
M  END
>  <UniqueID>  (39) 
38

>  <SMILES>  (39) 
COC(=O)c1c[nH+]n(C(=O)n2c(C([NH-])=O)cc3ccc(C)cc32)c1

>  <Energy>  (39) 
106.49964564990542

>  <Genealogy>  (39) 
COC(=O)c1c[nH+]n(C(=O)n2c(C([NH-])=O)cc3ccc(C)cc32)c1 (protonated)
COC(=O)c1c[nH+]n(C(=O)n2c(C([NH-])=O)cc3ccc(C)cc32)c1 (3D coordinates assigned)
COC(=O)c1c[nH+]n(C(=O)n2c(C([NH-])=O)cc3ccc(C)cc32)c1 (optimized conformer: 106.49964564990542 kcal/mol)

>  <smiles>  (39) 
COC(=O)c1cnn(C(=O)n2c(C(N)=O)cc3ccc(C)cc32)c1

>  <score_type>  (39) 
oracle

>  <origin>  (39) 
adg

>  <m_score__min__energy>  (39) 
-6.9299999999999997

>  <m_primary>  (39) 
energy

$$$$
40:0
     RDKit          3D

 38 39  0  0  0  0  0  0  0  0999 V2000
  149.9200  153.0610  131.8740 N   0  0  0  0  0  0  0  0  0  0  0  0
  149.2390  152.6480  133.0970 C   0  0  0  0  0  0  0  0  0  0  0  0
  148.2070  153.7020  133.5060 C   0  0  0  0  0  0  0  0  0  0  0  0
  148.0700  154.7200  132.4630 N   0  0  0  0  0  0  0  0  0  0  0  0
  147.7290  156.0990  132.7050 C   0  0  0  0  0  0  0  0  0  0  0  0
  148.7510  157.0790  132.6410 C   0  0  0  0  0  0  0  0  0  0  0  0
  148.4650  158.4360  132.8550 C   0  0  0  0  0  0  0  0  0  0  0  0
  147.1500  158.7880  133.1370 C   0  0  0  0  0  0  0  0  0  0  0  0
  146.5920  160.0290  133.3400 C   0  0  0  0  0  0  0  0  0  0  0  0
  145.2370  159.7940  133.5440 C   0  0  0  0  0  0  0  0  0  0  0  0
  144.2610  160.8630  133.8420 C   0  0  0  0  0  0  0  0  0  0  0  0
  142.8700  160.5730  133.9870 N   0  0  0  0  0  0  0  0  0  0  0  0
  144.6700  162.0420  134.0210 O   0  0  0  0  0  0  0  0  0  0  0  0
  144.9600  158.4630  133.4590 N   0  0  0  0  0  0  0  0  0  0  0  0
  143.6620  157.8430  133.4640 C   0  0  0  0  0  0  0  0  0  0  0  0
  142.7750  158.2260  132.6520 O   0  0  0  0  0  0  0  0  0  0  0  0
  143.3830  156.8260  134.3860 O   0  0  0  0  0  0  0  0  0  0  0  0
  142.4450  156.9680  135.4500 C   0  0  0  0  0  0  0  0  0  0  0  0
  141.7180  158.2720  135.3410 C   0  0  0  0  0  0  0  0  0  0  0  0
  140.7670  158.3990  134.5260 O   0  0  0  0  0  0  0  0  0  0  0  0
  142.0840  159.3420  136.1490 O   0  0  0  0  0  0  0  0  0  0  0  0
  146.1450  157.8580  133.2140 C   0  0  0  0  0  0  0  0  0  0  0  0
  146.3990  156.5000  132.9850 C   0  0  0  0  0  0  0  0  0  0  0  0
  150.3410  152.2080  131.4360 H   0  0  0  0  0  0  0  0  0  0  0  0
  150.7190  153.6760  132.1490 H   0  0  0  0  0  0  0  0  0  0  0  0
  148.7299  151.6884  132.9237 H   0  0  0  0  0  0  0  0  0  0  0  0
  149.9802  152.5383  133.9023 H   0  0  0  0  0  0  0  0  0  0  0  0
  147.2343  153.2133  133.6644 H   0  0  0  0  0  0  0  0  0  0  0  0
  148.5441  154.1875  134.4337 H   0  0  0  0  0  0  0  0  0  0  0  0
  148.2430  154.4180  131.4780 H   0  0  0  0  0  0  0  0  0  0  0  0
  149.7837  156.7712  132.4203 H   0  0  0  0  0  0  0  0  0  0  0  0
  149.2568  159.1977  132.8013 H   0  0  0  0  0  0  0  0  0  0  0  0
  147.1081  161.0004  133.3407 H   0  0  0  0  0  0  0  0  0  0  0  0
  142.1840  161.3500  134.1120 H   0  0  0  0  0  0  0  0  0  0  0  0
  142.5260  159.5880  134.0090 H   0  0  0  0  0  0  0  0  0  0  0  0
  141.7180  156.1438  135.4034 H   0  0  0  0  0  0  0  0  0  0  0  0
  142.9875  156.9433  136.4066 H   0  0  0  0  0  0  0  0  0  0  0  0
  145.5847  155.7614  133.0216 H   0  0  0  0  0  0  0  0  0  0  0  0
  1  2  1  0
  2  3  1  0
  3  4  1  0
  4  5  1  0
  5  6  2  0
  6  7  1  0
  7  8  2  0
  8  9  1  0
  9 10  2  0
 10 11  1  0
 11 12  1  0
 11 13  2  0
 10 14  1  0
 14 15  1  0
 15 16  2  0
 15 17  1  0
 17 18  1  0
 18 19  1  0
 19 20  2  0
 19 21  1  0
 14 22  1  0
 22 23  2  0
 23  5  1  0
 22  8  1  0
  1 24  1  0
  1 25  1  0
  2 26  1  0
  2 27  1  0
  3 28  1  0
  3 29  1  0
  4 30  1  0
  6 31  1  0
  7 32  1  0
  9 33  1  0
 12 34  1  0
 12 35  1  0
 18 36  1  0
 18 37  1  0
 23 38  1  0
M  CHG  1  21  -1
M  END
>  <UniqueID>  (40) 
39

>  <SMILES>  (40) 
NCCNc1ccc2cc(C(N)=O)n(C(=O)OCC(=O)[O-])c2c1

>  <Energy>  (40) 
71.00114852559943

>  <Genealogy>  (40) 
NCCNc1ccc2cc(C(N)=O)n(C(=O)OCC(=O)[O-])c2c1 (protonated)
NCCNc1ccc2cc(C(N)=O)n(C(=O)OCC(=O)[O-])c2c1 (3D coordinates assigned)
NCCNc1ccc2cc(C(N)=O)n(C(=O)OCC(=O)[O-])c2c1 (optimized conformer: 71.00114852559943 kcal/mol)

>  <smiles>  (40) 
NCCNc1ccc2cc(C(N)=O)n(C(=O)OCC(=O)O)c2c1

>  <score_type>  (40) 
oracle

>  <origin>  (40) 
adg

>  <m_score__min__energy>  (40) 
-6.5599999999999996

>  <m_primary>  (40) 
energy

$$$$
41:0
     RDKit          3D

 38 39  0  0  0  0  0  0  0  0999 V2000
  142.4510  158.7770  135.6370 N   0  0  0  0  0  0  0  0  0  0  0  0
  141.2430  158.3920  136.2900 C   0  0  0  0  0  0  0  0  0  0  0  0
  140.2410  159.1530  136.2330 O   0  0  0  0  0  0  0  0  0  0  0  0
  141.1690  157.0970  136.9980 C   0  0  0  0  0  0  0  0  0  0  0  0
  140.9840  156.9750  138.3740 C   0  0  0  0  0  0  0  0  0  0  0  0
  141.0590  155.6250  138.6340 C   0  0  0  0  0  0  0  0  0  0  0  0
  140.9360  154.9340  139.8360 C   0  0  0  0  0  0  0  0  0  0  0  0
  141.0370  153.5320  139.8030 C   0  0  0  0  0  0  0  0  0  0  0  0
  141.2620  152.8530  138.5780 C   0  0  0  0  0  0  0  0  0  0  0  0
  141.3290  151.3490  138.5540 C   0  0  0  0  0  0  0  0  0  0  0  0
  140.0360  150.7400  138.0060 C   0  0  0  0  0  0  0  0  0  0  0  0
  140.2670  150.0990  136.7800 O   0  0  0  0  0  0  0  0  0  0  0  0
  141.3740  153.5890  137.3780 C   0  0  0  0  0  0  0  0  0  0  0  0
  141.2770  154.9820  137.4440 C   0  0  0  0  0  0  0  0  0  0  0  0
  141.3390  155.8690  136.4300 N   0  0  0  0  0  0  0  0  0  0  0  0
  141.5100  155.5520  135.0400 C   0  0  0  0  0  0  0  0  0  0  0  0
  142.3830  154.7090  134.7020 O   0  0  0  0  0  0  0  0  0  0  0  0
  140.6440  156.1650  134.0150 C   0  0  0  0  0  0  0  0  0  0  0  0
  139.8560  155.4310  133.3590 O   0  0  0  0  0  0  0  0  0  0  0  0
  140.7080  157.5790  133.7550 N   0  0  0  0  0  0  0  0  0  0  0  0
  139.8530  158.2610  132.8250 C   0  0  0  0  0  0  0  0  0  0  0  0
  138.9160  157.6480  132.2430 O   0  0  0  0  0  0  0  0  0  0  0  0
  140.0230  159.7330  132.5920 C   0  0  0  0  0  0  0  0  0  0  0  0
  140.9860  160.2650  133.4610 O   0  0  0  0  0  0  0  0  0  0  0  0
  142.4320  159.2180  134.6910 H   0  0  0  0  0  0  0  0  0  0  0  0
  140.8141  157.7852  139.0984 H   0  0  0  0  0  0  0  0  0  0  0  0
  140.7651  155.4682  140.7823 H   0  0  0  0  0  0  0  0  0  0  0  0
  140.9407  152.9565  140.7355 H   0  0  0  0  0  0  0  0  0  0  0  0
  142.1693  151.0385  137.9156 H   0  0  0  0  0  0  0  0  0  0  0  0
  141.4691  150.9926  139.5852 H   0  0  0  0  0  0  0  0  0  0  0  0
  139.6483  150.0069  138.7286 H   0  0  0  0  0  0  0  0  0  0  0  0
  139.3053  151.5471  137.8493 H   0  0  0  0  0  0  0  0  0  0  0  0
  139.8400  149.2050  136.8380 H   0  0  0  0  0  0  0  0  0  0  0  0
  141.5334  153.0794  136.4163 H   0  0  0  0  0  0  0  0  0  0  0  0
  141.4110  158.1490  134.2770 H   0  0  0  0  0  0  0  0  0  0  0  0
  140.3433  159.8994  131.5529 H   0  0  0  0  0  0  0  0  0  0  0  0
  139.0619  160.2339  132.7803 H   0  0  0  0  0  0  0  0  0  0  0  0
  140.9900  159.6850  134.2680 H   0  0  0  0  0  0  0  0  0  0  0  0
  1  2  1  0
  2  3  2  0
  2  4  1  0
  4  5  2  0
  5  6  1  0
  6  7  2  0
  7  8  1  0
  8  9  2  0
  9 10  1  0
 10 11  1  0
 11 12  1  0
  9 13  1  0
 13 14  2  0
 14 15  1  0
 15 16  1  0
 16 17  2  0
 16 18  1  0
 18 19  2  0
 18 20  1  0
 20 21  1  0
 21 22  2  0
 21 23  1  0
 23 24  1  0
 15  4  1  0
 14  6  1  0
  1 25  1  0
  5 26  1  0
  7 27  1  0
  8 28  1  0
 10 29  1  0
 10 30  1  0
 11 31  1  0
 11 32  1  0
 12 33  1  0
 13 34  1  0
 20 35  1  0
 23 36  1  0
 23 37  1  0
 24 38  1  0
M  CHG  1   1  -1
M  END
>  <UniqueID>  (41) 
40

>  <SMILES>  (41) 
[NH-]C(=O)c1cc2ccc(CCO)cc2n1C(=O)C(=O)NC(=O)CO

>  <Energy>  (41) 
73.84400204258584

>  <Genealogy>  (41) 
[NH-]C(=O)c1cc2ccc(CCO)cc2n1C(=O)C(=O)NC(=O)CO (protonated)
[NH-]C(=O)c1cc2ccc(CCO)cc2n1C(=O)C(=O)NC(=O)CO (3D coordinates assigned)
[NH-]C(=O)c1cc2ccc(CCO)cc2n1C(=O)C(=O)NC(=O)CO (optimized conformer: 73.84400204258584 kcal/mol)

>  <smiles>  (41) 
NC(=O)c1cc2ccc(CCO)cc2n1C(=O)C(=O)NC(=O)CO

>  <score_type>  (41) 
oracle

>  <origin>  (41) 
adg

>  <m_score__min__energy>  (41) 
-7.2999999999999998

>  <m_primary>  (41) 
energy

$$$$
42:0
     RDKit          3D

 47 48  0  0  0  0  0  0  0  0999 V2000
  150.5390  150.8490  132.2220 C   0  0  0  0  0  0  0  0  0  0  0  0
  149.8450  151.6470  133.2450 N   0  0  0  0  0  0  0  0  0  0  0  0
  149.6370  150.8700  134.4770 C   0  0  0  0  0  0  0  0  0  0  0  0
  148.6010  152.2730  132.7430 C   0  0  0  0  0  0  0  0  0  0  0  0
  148.7590  153.7370  132.2990 C   0  0  0  0  0  0  0  0  0  0  0  0
  148.8090  154.5610  133.4580 O   0  0  0  0  0  0  0  0  0  0  0  0
  147.7630  154.6530  134.3830 C   0  0  0  0  0  0  0  0  0  0  0  0
  147.7890  153.9540  135.4330 O   0  0  0  0  0  0  0  0  0  0  0  0
  146.6690  155.5580  134.1400 N   0  0  0  0  0  0  0  0  0  0  0  0
  145.6790  155.7990  135.1940 C   0  0  0  0  0  0  0  0  0  0  0  0
  146.6500  156.3730  132.9510 C   0  0  0  0  0  0  0  0  0  0  0  0
  146.6640  155.8280  131.8140 O   0  0  0  0  0  0  0  0  0  0  0  0
  146.6060  157.8070  133.0420 N   0  0  0  0  0  0  0  0  0  0  0  0
  147.6520  158.6770  132.9600 C   0  0  0  0  0  0  0  0  0  0  0  0
  149.0390  158.3090  132.6020 C   0  0  0  0  0  0  0  0  0  0  0  0
  149.3720  156.9700  132.2320 N   0  0  0  0  0  0  0  0  0  0  0  0
  149.9500  159.1800  132.6370 O   0  0  0  0  0  0  0  0  0  0  0  0
  147.2220  159.9780  133.2230 C   0  0  0  0  0  0  0  0  0  0  0  0
  145.8730  159.8710  133.4770 C   0  0  0  0  0  0  0  0  0  0  0  0
  144.9460  160.8490  133.8240 C   0  0  0  0  0  0  0  0  0  0  0  0
  143.6240  160.4440  134.0730 C   0  0  0  0  0  0  0  0  0  0  0  0
  143.2560  159.0750  133.9960 C   0  0  0  0  0  0  0  0  0  0  0  0
  141.8270  158.6580  134.2290 C   0  0  0  0  0  0  0  0  0  0  0  0
  141.3590  159.1630  135.4300 F   0  0  0  0  0  0  0  0  0  0  0  0
  141.7540  157.2780  134.2610 F   0  0  0  0  0  0  0  0  0  0  0  0
  141.0090  159.1290  133.2160 F   0  0  0  0  0  0  0  0  0  0  0  0
  144.2230  158.1150  133.6180 C   0  0  0  0  0  0  0  0  0  0  0  0
  145.5270  158.5510  133.3600 C   0  0  0  0  0  0  0  0  0  0  0  0
  151.1851  150.1061  132.7125 H   0  0  0  0  0  0  0  0  0  0  0  0
  149.7977  150.3328  131.5944 H   0  0  0  0  0  0  0  0  0  0  0  0
  151.1531  151.5116  131.5944 H   0  0  0  0  0  0  0  0  0  0  0  0
  149.8097  151.5152  135.3510 H   0  0  0  0  0  0  0  0  0  0  0  0
  148.6053  150.4892  134.5005 H   0  0  0  0  0  0  0  0  0  0  0  0
  150.3405  150.0247  134.5005 H   0  0  0  0  0  0  0  0  0  0  0  0
  148.2458  151.6889  131.8812 H   0  0  0  0  0  0  0  0  0  0  0  0
  147.8905  152.2753  133.5828 H   0  0  0  0  0  0  0  0  0  0  0  0
  149.6892  153.8510  131.7230 H   0  0  0  0  0  0  0  0  0  0  0  0
  147.9090  154.0310  131.6658 H   0  0  0  0  0  0  0  0  0  0  0  0
  146.1559  155.6829  136.1784 H   0  0  0  0  0  0  0  0  0  0  0  0
  145.2816  156.8201  135.0972 H   0  0  0  0  0  0  0  0  0  0  0  0
  144.8567  155.0748  135.0972 H   0  0  0  0  0  0  0  0  0  0  0  0
  148.6360  156.2400  132.1140 H   0  0  0  0  0  0  0  0  0  0  0  0
  150.3630  156.7160  132.0230 H   0  0  0  0  0  0  0  0  0  0  0  0
  147.8310  160.8940  133.2267 H   0  0  0  0  0  0  0  0  0  0  0  0
  145.2392  161.9064  133.9010 H   0  0  0  0  0  0  0  0  0  0  0  0
  142.8646  161.1969  134.3308 H   0  0  0  0  0  0  0  0  0  0  0  0
  143.9564  157.0515  133.5290 H   0  0  0  0  0  0  0  0  0  0  0  0
  1  2  1  0
  2  3  1  0
  2  4  1  0
  4  5  1  0
  5  6  1  0
  6  7  1  0
  7  8  2  0
  7  9  1  0
  9 10  1  0
  9 11  1  0
 11 12  2  0
 11 13  1  0
 13 14  1  0
 14 15  1  0
 15 16  1  0
 15 17  2  0
 14 18  2  0
 18 19  1  0
 19 20  2  0
 20 21  1  0
 21 22  2  0
 22 23  1  0
 23 24  1  0
 23 25  1  0
 23 26  1  0
 22 27  1  0
 27 28  2  0
 28 13  1  0
 28 19  1  0
  1 29  1  0
  1 30  1  0
  1 31  1  0
  3 32  1  0
  3 33  1  0
  3 34  1  0
  4 35  1  0
  4 36  1  0
  5 37  1  0
  5 38  1  0
 10 39  1  0
 10 40  1  0
 10 41  1  0
 16 42  1  0
 16 43  1  0
 18 44  1  0
 20 45  1  0
 21 46  1  0
 27 47  1  0
M  END
>  <UniqueID>  (42) 
41

>  <SMILES>  (42) 
CN(C)CCOC(=O)N(C)C(=O)n1c(C(N)=O)cc2ccc(C(F)(F)F)cc21

>  <Energy>  (42) 
84.13037735167002

>  <Genealogy>  (42) 
CN(C)CCOC(=O)N(C)C(=O)n1c(C(N)=O)cc2ccc(C(F)(F)F)cc21 (3D coordinates assigned)
CN(C)CCOC(=O)N(C)C(=O)n1c(C(N)=O)cc2ccc(C(F)(F)F)cc21 (optimized conformer: 84.13037735167002 kcal/mol)

>  <smiles>  (42) 
CN(C)CCOC(=O)N(C)C(=O)n1c(C(N)=O)cc2ccc(C(F)(F)F)cc21

>  <score_type>  (42) 
oracle

>  <origin>  (42) 
adg

>  <m_score__min__energy>  (42) 
-6.4199999999999999

>  <m_primary>  (42) 
energy

$$$$
43:0
     RDKit          3D

 40 42  0  0  0  0  0  0  0  0999 V2000
  141.0900  159.0330  133.7680 N   0  0  0  0  0  0  0  0  0  0  0  0
  142.0500  160.0770  133.6290 C   0  0  0  0  0  0  0  0  0  0  0  0
  141.6540  161.2580  133.4360 O   0  0  0  0  0  0  0  0  0  0  0  0
  143.4990  159.7870  133.6520 C   0  0  0  0  0  0  0  0  0  0  0  0
  144.4780  160.7570  133.4420 C   0  0  0  0  0  0  0  0  0  0  0  0
  145.6740  160.0760  133.4550 C   0  0  0  0  0  0  0  0  0  0  0  0
  146.9740  160.5510  133.3140 C   0  0  0  0  0  0  0  0  0  0  0  0
  148.0270  159.6260  133.4070 C   0  0  0  0  0  0  0  0  0  0  0  0
  147.7640  158.2500  133.6380 C   0  0  0  0  0  0  0  0  0  0  0  0
  148.8550  157.3200  133.7780 N   0  0  0  0  0  0  0  0  0  0  0  0
  148.3400  155.9780  133.7530 C   0  0  0  0  0  0  0  0  0  0  0  0
  148.4770  155.1760  132.6090 C   0  0  0  0  0  0  0  0  0  0  0  0
  147.9370  153.8910  132.6030 C   0  0  0  0  0  0  0  0  0  0  0  0
  147.2600  153.4140  133.7270 C   0  0  0  0  0  0  0  0  0  0  0  0
  147.1280  154.2390  134.8550 C   0  0  0  0  0  0  0  0  0  0  0  0
  146.4330  153.7840  136.0230 N   0  0  0  0  0  0  0  0  0  0  0  0
  147.0130  153.0480  136.8490 O   0  0  0  0  0  0  0  0  0  0  0  0
  145.1260  154.1510  136.2540 O   0  0  0  0  0  0  0  0  0  0  0  0
  147.6650  155.4910  134.8340 N   0  0  0  0  0  0  0  0  0  0  0  0
  146.4290  157.8100  133.7850 C   0  0  0  0  0  0  0  0  0  0  0  0
  145.4000  158.7510  133.6710 C   0  0  0  0  0  0  0  0  0  0  0  0
  144.0690  158.5570  133.7980 N   0  0  0  0  0  0  0  0  0  0  0  0
  143.4210  157.3150  134.1170 C   0  0  0  0  0  0  0  0  0  0  0  0
  143.3270  156.4110  133.2430 O   0  0  0  0  0  0  0  0  0  0  0  0
  142.8740  157.1260  135.3910 O   0  0  0  0  0  0  0  0  0  0  0  0
  141.8010  156.2260  135.6490 C   0  0  0  0  0  0  0  0  0  0  0  0
  140.8990  156.2510  134.5790 O   0  0  0  0  0  0  0  0  0  0  0  0
  141.3370  158.1360  134.2410 H   0  0  0  0  0  0  0  0  0  0  0  0
  144.3268  161.8368  133.2968 H   0  0  0  0  0  0  0  0  0  0  0  0
  147.1712  161.6183  133.1351 H   0  0  0  0  0  0  0  0  0  0  0  0
  149.0659  159.9712  133.2998 H   0  0  0  0  0  0  0  0  0  0  0  0
  149.5520  157.4570  133.0080 H   0  0  0  0  0  0  0  0  0  0  0  0
  149.3550  157.4850  134.6830 H   0  0  0  0  0  0  0  0  0  0  0  0
  149.0065  155.5587  131.7240 H   0  0  0  0  0  0  0  0  0  0  0  0
  148.0442  153.2531  131.7132 H   0  0  0  0  0  0  0  0  0  0  0  0
  146.8335  152.4000  133.7286 H   0  0  0  0  0  0  0  0  0  0  0  0
  146.2041  156.7519  133.9845 H   0  0  0  0  0  0  0  0  0  0  0  0
  142.1985  155.2074  135.7689 H   0  0  0  0  0  0  0  0  0  0  0  0
  141.2829  156.5301  136.5704 H   0  0  0  0  0  0  0  0  0  0  0  0
  141.2880  156.8690  133.9070 H   0  0  0  0  0  0  0  0  0  0  0  0
  1  2  1  0
  2  3  2  0
  2  4  1  0
  4  5  2  0
  5  6  1  0
  6  7  2  0
  7  8  1  0
  8  9  2  0
  9 10  1  0
 10 11  1  0
 11 12  2  0
 12 13  1  0
 13 14  2  0
 14 15  1  0
 15 16  1  0
 16 17  2  0
 16 18  1  0
 15 19  2  0
  9 20  1  0
 20 21  2  0
 21 22  1  0
 22 23  1  0
 23 24  2  0
 23 25  1  0
 25 26  1  0
 26 27  1  0
 22  4  1  0
 21  6  1  0
 19 11  1  0
  1 28  1  0
  5 29  1  0
  7 30  1  0
  8 31  1  0
 10 32  1  0
 10 33  1  0
 12 34  1  0
 13 35  1  0
 14 36  1  0
 20 37  1  0
 26 38  1  0
 26 39  1  0
 27 40  1  0
M  CHG  4   1  -1  10   1  16   1  18  -1
M  END
>  <UniqueID>  (43) 
42

>  <SMILES>  (43) 
[NH-]C(=O)c1cc2ccc([NH2+]c3cccc([N+](=O)[O-])n3)cc2n1C(=O)OCO

>  <Energy>  (43) 
81.86702765716159

>  <Genealogy>  (43) 
[NH-]C(=O)c1cc2ccc([NH2+]c3cccc([N+](=O)[O-])n3)cc2n1C(=O)OCO (protonated)
[NH-]C(=O)c1cc2ccc([NH2+]c3cccc([N+](=O)[O-])n3)cc2n1C(=O)OCO (3D coordinates assigned)
[NH-]C(=O)c1cc2ccc([NH2+]c3cccc([N+](=O)[O-])n3)cc2n1C(=O)OCO (optimized conformer: 81.86702765716159 kcal/mol)

>  <smiles>  (43) 
NC(=O)c1cc2ccc(Nc3cccc([N+](=O)[O-])n3)cc2n1C(=O)OCO

>  <score_type>  (43) 
oracle

>  <origin>  (43) 
adg

>  <m_score__min__energy>  (43) 
-7

>  <m_primary>  (43) 
energy

$$$$
44:0
     RDKit          3D

 37 38  0  0  0  0  0  0  0  0999 V2000
  144.0420  153.4150  134.0860 C   0  0  0  0  0  0  0  0  0  0  0  0
  145.2000  154.3130  134.1500 N   0  0  0  0  0  0  0  0  0  0  0  0
  146.5390  153.7270  134.2960 C   0  0  0  0  0  0  0  0  0  0  0  0
  147.1530  154.1510  135.5920 C   0  0  0  0  0  0  0  0  0  0  0  0
  147.7270  155.2670  135.6870 O   0  0  0  0  0  0  0  0  0  0  0  0
  147.0540  153.3310  136.7090 O   0  0  0  0  0  0  0  0  0  0  0  0
  145.0420  155.7510  134.2320 C   0  0  0  0  0  0  0  0  0  0  0  0
  144.2540  156.2330  135.0910 O   0  0  0  0  0  0  0  0  0  0  0  0
  145.7670  156.6950  133.3460 C   0  0  0  0  0  0  0  0  0  0  0  0
  146.6030  156.2800  132.5000 O   0  0  0  0  0  0  0  0  0  0  0  0
  145.5240  158.1070  133.4450 N   0  0  0  0  0  0  0  0  0  0  0  0
  146.4460  159.0930  133.6230 C   0  0  0  0  0  0  0  0  0  0  0  0
  147.9140  158.8930  133.6380 C   0  0  0  0  0  0  0  0  0  0  0  0
  148.4820  157.6320  133.9990 N   0  0  0  0  0  0  0  0  0  0  0  0
  148.6830  159.8460  133.3440 O   0  0  0  0  0  0  0  0  0  0  0  0
  145.8130  160.3320  133.7410 C   0  0  0  0  0  0  0  0  0  0  0  0
  144.4650  160.0640  133.6390 C   0  0  0  0  0  0  0  0  0  0  0  0
  143.3730  160.9210  133.7190 C   0  0  0  0  0  0  0  0  0  0  0  0
  142.0870  160.3620  133.6200 C   0  0  0  0  0  0  0  0  0  0  0  0
  141.9150  158.9660  133.4330 C   0  0  0  0  0  0  0  0  0  0  0  0
  140.5310  158.3700  133.3900 C   0  0  0  0  0  0  0  0  0  0  0  0
  139.7720  158.9750  132.4020 F   0  0  0  0  0  0  0  0  0  0  0  0
  139.9140  158.5620  134.6120 F   0  0  0  0  0  0  0  0  0  0  0  0
  140.5900  157.0140  133.1210 F   0  0  0  0  0  0  0  0  0  0  0  0
  143.0520  158.1250  133.3840 C   0  0  0  0  0  0  0  0  0  0  0  0
  144.3180  158.7140  133.4660 C   0  0  0  0  0  0  0  0  0  0  0  0
  143.7168  153.1628  135.1061 H   0  0  0  0  0  0  0  0  0  0  0  0
  143.2200  153.9141  133.5519 H   0  0  0  0  0  0  0  0  0  0  0  0
  144.3208  152.4946  133.5519 H   0  0  0  0  0  0  0  0  0  0  0  0
  146.4594  152.6301  134.2740 H   0  0  0  0  0  0  0  0  0  0  0  0
  147.1742  154.0756  133.4683 H   0  0  0  0  0  0  0  0  0  0  0  0
  147.8860  156.7960  134.1860 H   0  0  0  0  0  0  0  0  0  0  0  0
  149.5190  157.5190  134.0380 H   0  0  0  0  0  0  0  0  0  0  0  0
  146.2890  161.3132  133.8848 H   0  0  0  0  0  0  0  0  0  0  0  0
  143.5112  162.0037  133.8556 H   0  0  0  0  0  0  0  0  0  0  0  0
  141.2039  161.0143  133.6883 H   0  0  0  0  0  0  0  0  0  0  0  0
  142.9429  157.0350  133.2839 H   0  0  0  0  0  0  0  0  0  0  0  0
  1  2  1  0
  2  3  1  0
  3  4  1  0
  4  5  2  0
  4  6  1  0
  2  7  1  0
  7  8  2  0
  7  9  1  0
  9 10  2  0
  9 11  1  0
 11 12  1  0
 12 13  1  0
 13 14  1  0
 13 15  2  0
 12 16  2  0
 16 17  1  0
 17 18  2  0
 18 19  1  0
 19 20  2  0
 20 21  1  0
 21 22  1  0
 21 23  1  0
 21 24  1  0
 20 25  1  0
 25 26  2  0
 26 11  1  0
 26 17  1  0
  1 27  1  0
  1 28  1  0
  1 29  1  0
  3 30  1  0
  3 31  1  0
 14 32  1  0
 14 33  1  0
 16 34  1  0
 18 35  1  0
 19 36  1  0
 25 37  1  0
M  CHG  1   6  -1
M  END
>  <UniqueID>  (44) 
43

>  <SMILES>  (44) 
CN(CC(=O)[O-])C(=O)C(=O)n1c(C(N)=O)cc2ccc(C(F)(F)F)cc21

>  <Energy>  (44) 
77.37596308230744

>  <Genealogy>  (44) 
CN(CC(=O)[O-])C(=O)C(=O)n1c(C(N)=O)cc2ccc(C(F)(F)F)cc21 (protonated)
CN(CC(=O)[O-])C(=O)C(=O)n1c(C(N)=O)cc2ccc(C(F)(F)F)cc21 (3D coordinates assigned)
CN(CC(=O)[O-])C(=O)C(=O)n1c(C(N)=O)cc2ccc(C(F)(F)F)cc21 (optimized conformer: 77.37596308230744 kcal/mol)

>  <smiles>  (44) 
CN(CC(=O)O)C(=O)C(=O)n1c(C(N)=O)cc2ccc(C(F)(F)F)cc21

>  <score_type>  (44) 
oracle

>  <origin>  (44) 
adg

>  <m_score__min__energy>  (44) 
-6.8099999999999996

>  <m_primary>  (44) 
energy

$$$$
45:0
     RDKit          3D

 45 46  0  0  0  0  0  0  0  0999 V2000
  142.9170  149.6080  132.2290 C   0  0  0  0  0  0  0  0  0  0  0  0
  142.7010  150.9580  132.7580 N   0  0  0  0  0  0  0  0  0  0  0  0
  141.3560  151.4170  133.1200 C   0  0  0  0  0  0  0  0  0  0  0  0
  143.8200  151.8420  132.9460 C   0  0  0  0  0  0  0  0  0  0  0  0
  144.9810  151.4770  132.6060 O   0  0  0  0  0  0  0  0  0  0  0  0
  143.6150  153.1120  133.5030 O   0  0  0  0  0  0  0  0  0  0  0  0
  143.4450  154.2910  132.7190 C   0  0  0  0  0  0  0  0  0  0  0  0
  143.9870  155.4230  133.3950 O   0  0  0  0  0  0  0  0  0  0  0  0
  145.1710  155.3720  134.1370 C   0  0  0  0  0  0  0  0  0  0  0  0
  145.2060  154.7450  135.2320 O   0  0  0  0  0  0  0  0  0  0  0  0
  146.3530  156.0270  133.6480 N   0  0  0  0  0  0  0  0  0  0  0  0
  147.4770  155.4390  133.1470 C   0  0  0  0  0  0  0  0  0  0  0  0
  147.7810  153.9950  133.1710 C   0  0  0  0  0  0  0  0  0  0  0  0
  146.7520  153.0270  133.3800 N   0  0  0  0  0  0  0  0  0  0  0  0
  148.9780  153.6110  133.0640 O   0  0  0  0  0  0  0  0  0  0  0  0
  148.3560  156.3970  132.6550 C   0  0  0  0  0  0  0  0  0  0  0  0
  147.7390  157.6070  132.8820 C   0  0  0  0  0  0  0  0  0  0  0  0
  148.1640  158.8950  132.5820 C   0  0  0  0  0  0  0  0  0  0  0  0
  147.3100  159.9630  132.9000 C   0  0  0  0  0  0  0  0  0  0  0  0
  146.0390  159.7370  133.5020 C   0  0  0  0  0  0  0  0  0  0  0  0
  145.1580  160.8480  133.8160 N   0  0  0  0  0  0  0  0  0  0  0  0
  145.7100  162.1530  134.2040 C   0  0  0  0  0  0  0  0  0  0  0  0
  143.6990  160.6860  133.7570 C   0  0  0  0  0  0  0  0  0  0  0  0
  145.6490  158.4020  133.7840 C   0  0  0  0  0  0  0  0  0  0  0  0
  146.5320  157.3580  133.4790 C   0  0  0  0  0  0  0  0  0  0  0  0
  143.0302  148.9008  133.0639 H   0  0  0  0  0  0  0  0  0  0  0  0
  142.0546  149.3132  131.6131 H   0  0  0  0  0  0  0  0  0  0  0  0
  143.8283  149.5970  131.6131 H   0  0  0  0  0  0  0  0  0  0  0  0
  141.2620  151.4491  134.2155 H   0  0  0  0  0  0  0  0  0  0  0  0
  141.1887  152.4231  132.7080 H   0  0  0  0  0  0  0  0  0  0  0  0
  140.6085  150.7231  132.7080 H   0  0  0  0  0  0  0  0  0  0  0  0
  143.9614  154.1630  131.7562 H   0  0  0  0  0  0  0  0  0  0  0  0
  142.3701  154.4564  132.5540 H   0  0  0  0  0  0  0  0  0  0  0  0
  145.7860  153.3170  133.6460 H   0  0  0  0  0  0  0  0  0  0  0  0
  146.9810  152.0080  133.3590 H   0  0  0  0  0  0  0  0  0  0  0  0
  149.3354  156.2252  132.1847 H   0  0  0  0  0  0  0  0  0  0  0  0
  149.1411  159.0730  132.1091 H   0  0  0  0  0  0  0  0  0  0  0  0
  147.6281  160.9928  132.6803 H   0  0  0  0  0  0  0  0  0  0  0  0
  145.7411  162.2264  135.3011 H   0  0  0  0  0  0  0  0  0  0  0  0
  146.7283  162.2549  133.8007 H   0  0  0  0  0  0  0  0  0  0  0  0
  145.0739  162.9547  133.8007 H   0  0  0  0  0  0  0  0  0  0  0  0
  143.2935  160.6410  134.7785 H   0  0  0  0  0  0  0  0  0  0  0  0
  143.2564  161.5405  133.2242 H   0  0  0  0  0  0  0  0  0  0  0  0
  143.4547  159.7552  133.2242 H   0  0  0  0  0  0  0  0  0  0  0  0
  144.6684  158.1902  134.2352 H   0  0  0  0  0  0  0  0  0  0  0  0
  1  2  1  0
  2  3  1  0
  2  4  1  0
  4  5  2  0
  4  6  1  0
  6  7  1  0
  7  8  1  0
  8  9  1  0
  9 10  2  0
  9 11  1  0
 11 12  1  0
 12 13  1  0
 13 14  1  0
 13 15  2  0
 12 16  2  0
 16 17  1  0
 17 18  2  0
 18 19  1  0
 19 20  2  0
 20 21  1  0
 21 22  1  0
 21 23  1  0
 20 24  1  0
 24 25  2  0
 25 11  1  0
 25 17  1  0
  1 26  1  0
  1 27  1  0
  1 28  1  0
  3 29  1  0
  3 30  1  0
  3 31  1  0
  7 32  1  0
  7 33  1  0
 14 34  1  0
 14 35  1  0
 16 36  1  0
 18 37  1  0
 19 38  1  0
 22 39  1  0
 22 40  1  0
 22 41  1  0
 23 42  1  0
 23 43  1  0
 23 44  1  0
 24 45  1  0
M  END
>  <UniqueID>  (45) 
44

>  <SMILES>  (45) 
CN(C)C(=O)OCOC(=O)n1c(C(N)=O)cc2ccc(N(C)C)cc21

>  <Energy>  (45) 
78.3232167159782

>  <Genealogy>  (45) 
CN(C)C(=O)OCOC(=O)n1c(C(N)=O)cc2ccc(N(C)C)cc21 (3D coordinates assigned)
CN(C)C(=O)OCOC(=O)n1c(C(N)=O)cc2ccc(N(C)C)cc21 (optimized conformer: 78.3232167159782 kcal/mol)

>  <smiles>  (45) 
CN(C)C(=O)OCOC(=O)n1c(C(N)=O)cc2ccc(N(C)C)cc21

>  <score_type>  (45) 
oracle

>  <origin>  (45) 
adg

>  <m_score__min__energy>  (45) 
-6.4299999999999997

>  <m_primary>  (45) 
energy

$$$$
46:0
     RDKit          3D

 53 57  0  0  0  0  0  0  0  0999 V2000
  149.8460  151.4610  130.5260 C   0  0  0  0  0  0  0  0  0  0  0  0
  149.8420  150.8120  131.8490 N   0  0  0  0  0  0  0  0  0  0  0  0
  150.1810  151.6620  132.9880 C   0  0  2  0  0  0  0  0  0  0  0  0
  149.9330  150.7530  134.1990 C   0  0  0  0  0  0  0  0  0  0  0  0
  148.8550  149.7830  133.7190 C   0  0  0  0  0  0  0  0  0  0  0  0
  148.5770  150.2200  132.2760 C   0  0  1  0  0  0  0  0  0  0  0  0
  147.4300  151.2620  132.2480 C   0  0  0  0  0  0  0  0  0  0  0  0
  147.8360  152.6000  132.7470 N   0  0  0  0  0  0  0  0  0  0  0  0
  146.8470  153.6720  132.8070 C   0  0  0  0  0  0  0  0  0  0  0  0
  145.4680  153.4210  132.5280 C   0  0  0  0  0  0  0  0  0  0  0  0
  144.5140  154.4500  132.5750 C   0  0  0  0  0  0  0  0  0  0  0  0
  144.9420  155.7250  132.9140 C   0  0  0  0  0  0  0  0  0  0  0  0
  144.2330  156.9010  133.0120 C   0  0  0  0  0  0  0  0  0  0  0  0
  145.1690  157.8660  133.3810 C   0  0  0  0  0  0  0  0  0  0  0  0
  144.8150  159.2700  133.6790 C   0  0  0  0  0  0  0  0  0  0  0  0
  145.7330  160.3290  133.4170 N   0  0  0  0  0  0  0  0  0  0  0  0
  143.7060  159.5330  134.2160 O   0  0  0  0  0  0  0  0  0  0  0  0
  146.4070  157.3080  133.4970 N   0  0  0  0  0  0  0  0  0  0  0  0
  147.6520  157.9640  133.7810 C   0  0  0  0  0  0  0  0  0  0  0  0
  148.4100  157.5150  134.6840 O   0  0  0  0  0  0  0  0  0  0  0  0
  147.9980  159.1220  133.0780 O   0  0  0  0  0  0  0  0  0  0  0  0
  148.3680  159.1260  131.7000 C   0  0  2  0  0  0  0  0  0  0  0  0
  149.8780  158.8350  131.5290 C   0  0  0  0  0  0  0  0  0  0  0  0
  150.3830  159.8720  130.7090 O   0  0  0  0  0  0  0  0  0  0  0  0
  149.4240  160.8280  130.4680 C   0  0  0  0  0  0  0  0  0  0  0  0
  149.6480  161.8630  129.7860 O   0  0  0  0  0  0  0  0  0  0  0  0
  148.1250  160.5170  131.0940 C   0  0  0  0  0  0  0  0  0  0  0  0
  146.2490  155.9970  133.2090 C   0  0  0  0  0  0  0  0  0  0  0  0
  147.2280  155.0000  133.1490 C   0  0  0  0  0  0  0  0  0  0  0  0
  149.2560  152.9030  133.0590 C   0  0  0  0  0  0  0  0  0  0  0  0
  149.8527  152.5536  130.6536 H   0  0  0  0  0  0  0  0  0  0  0  0
  150.7422  151.1514  129.9684 H   0  0  0  0  0  0  0  0  0  0  0  0
  148.9460  151.1625  129.9684 H   0  0  0  0  0  0  0  0  0  0  0  0
  151.2089  152.0493  132.9304 H   0  0  0  0  0  0  0  0  0  0  0  0
  150.8500  150.2124  134.4763 H   0  0  0  0  0  0  0  0  0  0  0  0
  149.6285  151.3147  135.0944 H   0  0  0  0  0  0  0  0  0  0  0  0
  149.2207  148.7460  133.7497 H   0  0  0  0  0  0  0  0  0  0  0  0
  147.9537  149.8069  134.3492 H   0  0  0  0  0  0  0  0  0  0  0  0
  148.2575  149.3964  131.6206 H   0  0  0  0  0  0  0  0  0  0  0  0
  147.0807  151.3682  131.2103 H   0  0  0  0  0  0  0  0  0  0  0  0
  146.6392  150.8922  132.9173 H   0  0  0  0  0  0  0  0  0  0  0  0
  145.1474  152.4006  132.2711 H   0  0  0  0  0  0  0  0  0  0  0  0
  143.4561  154.2505  132.3491 H   0  0  0  0  0  0  0  0  0  0  0  0
  143.1571  157.0479  132.8365 H   0  0  0  0  0  0  0  0  0  0  0  0
  146.2750  160.3630  132.5250 H   0  0  0  0  0  0  0  0  0  0  0  0
  147.7640  158.3535  131.2016 H   0  0  0  0  0  0  0  0  0  0  0  0
  150.3818  158.8409  132.5068 H   0  0  0  0  0  0  0  0  0  0  0  0
  150.0501  157.8455  131.0803 H   0  0  0  0  0  0  0  0  0  0  0  0
  147.8742  161.2513  131.8737 H   0  0  0  0  0  0  0  0  0  0  0  0
  147.2819  160.5449  130.3881 H   0  0  0  0  0  0  0  0  0  0  0  0
  148.2800  155.2394  133.3636 H   0  0  0  0  0  0  0  0  0  0  0  0
  149.6194  153.6502  132.3382 H   0  0  0  0  0  0  0  0  0  0  0  0
  149.2887  153.2730  134.0944 H   0  0  0  0  0  0  0  0  0  0  0  0
  1  2  1  0
  2  3  1  0
  3  4  1  0
  4  5  1  0
  5  6  1  0
  6  7  1  0
  7  8  1  0
  8  9  1  0
  9 10  2  0
 10 11  1  0
 11 12  2  0
 12 13  1  0
 13 14  2  0
 14 15  1  0
 15 16  1  0
 15 17  2  0
 14 18  1  0
 18 19  1  0
 19 20  2  0
 19 21  1  0
 21 22  1  0
 22 23  1  0
 23 24  1  0
 24 25  1  0
 25 26  2  0
 25 27  1  0
 18 28  1  0
 28 29  2  0
  8 30  1  0
  6  2  1  0
 29  9  1  0
 30  3  1  0
 28 12  1  0
 27 22  1  0
  1 31  1  0
  1 32  1  0
  1 33  1  0
  3 34  1  6
  4 35  1  0
  4 36  1  0
  5 37  1  0
  5 38  1  0
  6 39  1  6
  7 40  1  0
  7 41  1  0
 10 42  1  0
 11 43  1  0
 13 44  1  0
 16 45  1  0
 22 46  1  6
 23 47  1  0
 23 48  1  0
 27 49  1  0
 27 50  1  0
 29 51  1  0
 30 52  1  0
 30 53  1  0
M  CHG  1  16  -1
M  END
>  <UniqueID>  (46) 
45

>  <SMILES>  (46) 
CN1[C@@H]2CC[C@H]1CN(c1ccc3cc(C([NH-])=O)n(C(=O)O[C@@H]4COC(=O)C4)c3c1)C2

>  <Energy>  (46) 
121.72919067355805

>  <Genealogy>  (46) 
CN1C2CCC1CN(c1ccc3cc(C([NH-])=O)n(C(=O)O[C@@H]4COC(=O)C4)c3c1)C2 (protonated)
CN1[C@@H]2CC[C@H]1CN(c1ccc3cc(C([NH-])=O)n(C(=O)O[C@@H]4COC(=O)C4)c3c1)C2 (chirality)
CN1[C@@H]2CC[C@H]1CN(c1ccc3cc(C([NH-])=O)n(C(=O)O[C@@H]4COC(=O)C4)c3c1)C2 (3D coordinates assigned)
CN1[C@@H]2CC[C@H]1CN(c1ccc3cc(C([NH-])=O)n(C(=O)O[C@@H]4COC(=O)C4)c3c1)C2 (nonaromatic ring conformer: 121.72919067355805 kcal/mol)

>  <smiles>  (46) 
CN1C2CCC1CN(c1ccc3cc(C(N)=O)n(C(=O)O[C@@H]4COC(=O)C4)c3c1)C2

>  <score_type>  (46) 
oracle

>  <origin>  (46) 
adg

>  <m_score__min__energy>  (46) 
-8.9800000000000004

>  <m_primary>  (46) 
energy

$$$$
47:0
     RDKit          3D

 30 31  0  0  0  0  0  0  0  0999 V2000
  138.9700  158.4110  134.2710 N   0  0  0  0  0  0  0  0  0  0  0  0
  140.0150  158.1420  135.2060 C   0  0  0  0  0  0  0  0  0  0  0  0
  139.7280  157.9990  136.4240 O   0  0  0  0  0  0  0  0  0  0  0  0
  141.4150  157.9920  134.7500 C   0  0  0  0  0  0  0  0  0  0  0  0
  142.2000  156.8710  135.0120 C   0  0  0  0  0  0  0  0  0  0  0  0
  143.4450  157.1720  134.5100 C   0  0  0  0  0  0  0  0  0  0  0  0
  144.6090  156.4080  134.4910 C   0  0  0  0  0  0  0  0  0  0  0  0
  145.7490  156.9600  133.8830 C   0  0  0  0  0  0  0  0  0  0  0  0
  145.6970  158.2500  133.3050 C   0  0  0  0  0  0  0  0  0  0  0  0
  146.8670  158.7980  132.6720 C   0  0  0  0  0  0  0  0  0  0  0  0
  147.8470  159.2590  132.1410 C   0  0  0  0  0  0  0  0  0  0  0  0
  149.0130  159.8110  131.5080 C   0  0  0  0  0  0  0  0  0  0  0  0
  149.9590  160.2410  132.2200 O   0  0  0  0  0  0  0  0  0  0  0  0
  149.0900  159.8660  130.0130 C   0  0  0  0  0  0  0  0  0  0  0  0
  150.1780  160.6490  129.6060 O   0  0  0  0  0  0  0  0  0  0  0  0
  144.5030  158.9970  133.3400 C   0  0  0  0  0  0  0  0  0  0  0  0
  143.3870  158.4300  133.9690 C   0  0  0  0  0  0  0  0  0  0  0  0
  142.1450  158.9480  134.1080 N   0  0  0  0  0  0  0  0  0  0  0  0
  141.6810  160.2130  133.6070 C   0  0  0  0  0  0  0  0  0  0  0  0
  142.3870  161.2480  133.7340 O   0  0  0  0  0  0  0  0  0  0  0  0
  140.4540  160.3040  132.9600 O   0  0  0  0  0  0  0  0  0  0  0  0
  139.1740  158.5890  133.2640 H   0  0  0  0  0  0  0  0  0  0  0  0
  137.9790  158.4760  134.5970 H   0  0  0  0  0  0  0  0  0  0  0  0
  141.8900  155.9425  135.5137 H   0  0  0  0  0  0  0  0  0  0  0  0
  144.6352  155.4033  134.9382 H   0  0  0  0  0  0  0  0  0  0  0  0
  146.6870  156.3860  133.8563 H   0  0  0  0  0  0  0  0  0  0  0  0
  149.2106  158.8461  129.6190 H   0  0  0  0  0  0  0  0  0  0  0  0
  148.1637  160.3153  129.6255 H   0  0  0  0  0  0  0  0  0  0  0  0
  150.7360  160.7860  130.4150 H   0  0  0  0  0  0  0  0  0  0  0  0
  144.4486  159.9975  132.8861 H   0  0  0  0  0  0  0  0  0  0  0  0
  1  2  1  0
  2  3  2  0
  2  4  1  0
  4  5  2  0
  5  6  1  0
  6  7  2  0
  7  8  1  0
  8  9  2  0
  9 10  1  0
 10 11  3  0
 11 12  1  0
 12 13  2  0
 12 14  1  0
 14 15  1  0
  9 16  1  0
 16 17  2  0
 17 18  1  0
 18 19  1  0
 19 20  2  0
 19 21  1  0
 18  4  1  0
 17  6  1  0
  1 22  1  0
  1 23  1  0
  5 24  1  0
  7 25  1  0
  8 26  1  0
 14 27  1  0
 14 28  1  0
 15 29  1  0
 16 30  1  0
M  CHG  1  21  -1
M  END
>  <UniqueID>  (47) 
46

>  <SMILES>  (47) 
NC(=O)c1cc2ccc(C#CC(=O)CO)cc2n1C(=O)[O-]

>  <Energy>  (47) 
64.44940093013807

>  <Genealogy>  (47) 
NC(=O)c1cc2ccc(C#CC(=O)CO)cc2n1C(=O)[O-] (protonated)
NC(=O)c1cc2ccc(C#CC(=O)CO)cc2n1C(=O)[O-] (3D coordinates assigned)
NC(=O)c1cc2ccc(C#CC(=O)CO)cc2n1C(=O)[O-] (optimized conformer: 64.44940093013807 kcal/mol)

>  <smiles>  (47) 
NC(=O)c1cc2ccc(C#CC(=O)CO)cc2n1C(=O)O

>  <score_type>  (47) 
oracle

>  <origin>  (47) 
adg

>  <m_score__min__energy>  (47) 
-6.6100000000000003

>  <m_primary>  (47) 
energy

$$$$
48:0
     RDKit          3D

 41 42  0  0  0  0  0  0  0  0999 V2000
  149.4940  161.7580  130.3530 C   0  0  0  0  0  0  0  0  0  0  0  0
  149.1060  160.5290  131.1190 C   0  0  0  0  0  0  0  0  0  0  0  0
  149.9650  159.4040  131.1370 C   0  0  0  0  0  0  0  0  0  0  0  0
  149.6030  158.2380  131.8290 C   0  0  0  0  0  0  0  0  0  0  0  0
  148.3700  158.2200  132.4760 C   0  0  0  0  0  0  0  0  0  0  0  0
  147.7850  157.2340  133.2360 C   0  0  0  0  0  0  0  0  0  0  0  0
  146.5580  157.7560  133.6380 C   0  0  0  0  0  0  0  0  0  0  0  0
  145.5640  156.9840  134.4120 C   0  0  0  0  0  0  0  0  0  0  0  0
  144.1690  157.2280  134.2620 N   0  0  0  0  0  0  0  0  0  0  0  0
  145.9500  156.0630  135.1800 O   0  0  0  0  0  0  0  0  0  0  0  0
  146.3930  159.0190  133.1520 N   0  0  0  0  0  0  0  0  0  0  0  0
  145.3130  159.9280  133.4200 C   0  0  0  0  0  0  0  0  0  0  0  0
  145.5320  160.9990  134.0500 O   0  0  0  0  0  0  0  0  0  0  0  0
  144.0150  159.6090  133.0040 O   0  0  0  0  0  0  0  0  0  0  0  0
  142.8490  160.1420  133.6220 C   0  0  0  0  0  0  0  0  0  0  0  0
  141.9150  159.0970  133.8750 O   0  0  0  0  0  0  0  0  0  0  0  0
  141.5730  158.6860  135.1680 C   0  0  0  0  0  0  0  0  0  0  0  0
  142.3940  158.8340  136.1150 O   0  0  0  0  0  0  0  0  0  0  0  0
  140.2840  158.0970  135.4160 N   0  0  0  0  0  0  0  0  0  0  0  0
  140.0550  157.3480  136.6550 C   0  0  0  0  0  0  0  0  0  0  0  0
  139.2080  158.2400  134.4280 C   0  0  0  0  0  0  0  0  0  0  0  0
  139.3280  157.1860  133.3740 C   0  0  0  0  0  0  0  0  0  0  0  0
  139.5660  155.9930  133.6970 O   0  0  0  0  0  0  0  0  0  0  0  0
  139.1750  157.5200  132.0350 O   0  0  0  0  0  0  0  0  0  0  0  0
  147.5110  159.2880  132.4410 C   0  0  0  0  0  0  0  0  0  0  0  0
  147.8560  160.4690  131.7730 C   0  0  0  0  0  0  0  0  0  0  0  0
  149.7484  162.5639  131.0572 H   0  0  0  0  0  0  0  0  0  0  0  0
  150.3656  161.5355  129.7199 H   0  0  0  0  0  0  0  0  0  0  0  0
  148.6527  162.0763  129.7199 H   0  0  0  0  0  0  0  0  0  0  0  0
  150.9259  159.4441  130.6032 H   0  0  0  0  0  0  0  0  0  0  0  0
  150.2723  157.3656  131.8594 H   0  0  0  0  0  0  0  0  0  0  0  0
  148.1986  156.2432  133.4755 H   0  0  0  0  0  0  0  0  0  0  0  0
  143.7450  158.1320  134.5670 H   0  0  0  0  0  0  0  0  0  0  0  0
  143.1264  160.6215  134.5723 H   0  0  0  0  0  0  0  0  0  0  0  0
  142.3903  160.8839  132.9518 H   0  0  0  0  0  0  0  0  0  0  0  0
  140.2540  157.9990  137.5191 H   0  0  0  0  0  0  0  0  0  0  0  0
  139.0107  157.0041  136.6879 H   0  0  0  0  0  0  0  0  0  0  0  0
  140.7284  156.4789  136.6879 H   0  0  0  0  0  0  0  0  0  0  0  0
  138.2359  158.1393  134.9329 H   0  0  0  0  0  0  0  0  0  0  0  0
  139.2859  159.2299  133.9547 H   0  0  0  0  0  0  0  0  0  0  0  0
  147.1702  161.3289  131.7580 H   0  0  0  0  0  0  0  0  0  0  0  0
  1  2  1  0
  2  3  2  0
  3  4  1  0
  4  5  2  0
  5  6  1  0
  6  7  2  0
  7  8  1  0
  8  9  1  0
  8 10  2  0
  7 11  1  0
 11 12  1  0
 12 13  2  0
 12 14  1  0
 14 15  1  0
 15 16  1  0
 16 17  1  0
 17 18  2  0
 17 19  1  0
 19 20  1  0
 19 21  1  0
 21 22  1  0
 22 23  2  0
 22 24  1  0
 11 25  1  0
 25 26  2  0
 26  2  1  0
 25  5  1  0
  1 27  1  0
  1 28  1  0
  1 29  1  0
  3 30  1  0
  4 31  1  0
  6 32  1  0
  9 33  1  0
 15 34  1  0
 15 35  1  0
 20 36  1  0
 20 37  1  0
 20 38  1  0
 21 39  1  0
 21 40  1  0
 26 41  1  0
M  CHG  2   9  -1  24  -1
M  END
>  <UniqueID>  (48) 
47

>  <SMILES>  (48) 
Cc1ccc2cc(C([NH-])=O)n(C(=O)OCOC(=O)N(C)CC(=O)[O-])c2c1

>  <Energy>  (48) 
71.85918368432338

>  <Genealogy>  (48) 
Cc1ccc2cc(C([NH-])=O)n(C(=O)OCOC(=O)N(C)CC(=O)[O-])c2c1 (protonated)
Cc1ccc2cc(C([NH-])=O)n(C(=O)OCOC(=O)N(C)CC(=O)[O-])c2c1 (3D coordinates assigned)
Cc1ccc2cc(C([NH-])=O)n(C(=O)OCOC(=O)N(C)CC(=O)[O-])c2c1 (optimized conformer: 71.85918368432338 kcal/mol)

>  <smiles>  (48) 
Cc1ccc2cc(C(N)=O)n(C(=O)OCOC(=O)N(C)CC(=O)O)c2c1

>  <score_type>  (48) 
oracle

>  <origin>  (48) 
adg

>  <m_score__min__energy>  (48) 
-6.6100000000000003

>  <m_primary>  (48) 
energy

$$$$
49:0
     RDKit          3D

 41 42  0  0  0  0  0  0  0  0999 V2000
  149.6080  156.4060  133.4640 H   0  0  0  0  0  0  0  0  0  0  0  0
  149.3600  156.0090  132.5920 O   0  0  0  0  0  0  0  0  0  0  0  0
  148.8270  154.4610  132.9750 S   0  0  0  0  0  0  0  0  0  0  0  0
  147.0680  154.3870  133.0860 C   0  0  0  0  0  0  0  0  0  0  0  0
  146.3280  155.4050  133.5580 C   0  0  0  0  0  0  0  0  0  0  0  0
  145.2453  155.2377  133.6567 H   0  0  0  0  0  0  0  0  0  0  0  0
  146.8480  156.7320  133.9560 C   0  0  0  0  0  0  0  0  0  0  0  0
  147.8770  156.7790  134.6830 O   0  0  0  0  0  0  0  0  0  0  0  0
  146.1900  157.9570  133.5920 N   0  0  0  0  0  0  0  0  0  0  0  0
  146.7630  159.0770  133.0670 C   0  0  0  0  0  0  0  0  0  0  0  0
  148.1690  159.2090  132.6330 C   0  0  0  0  0  0  0  0  0  0  0  0
  148.4450  159.9470  131.6490 O   0  0  0  0  0  0  0  0  0  0  0  0
  149.2190  158.4790  133.2710 N   0  0  0  0  0  0  0  0  0  0  0  0
  149.0150  157.7250  133.9610 H   0  0  0  0  0  0  0  0  0  0  0  0
  150.2100  158.6280  132.9790 H   0  0  0  0  0  0  0  0  0  0  0  0
  145.8310  160.1080  132.9750 C   0  0  0  0  0  0  0  0  0  0  0  0
  145.9981  161.1264  132.5943 H   0  0  0  0  0  0  0  0  0  0  0  0
  144.6560  159.5810  133.4620 C   0  0  0  0  0  0  0  0  0  0  0  0
  143.4060  160.1740  133.6170 C   0  0  0  0  0  0  0  0  0  0  0  0
  143.2288  161.2140  133.3055 H   0  0  0  0  0  0  0  0  0  0  0  0
  142.3780  159.4020  134.1840 C   0  0  0  0  0  0  0  0  0  0  0  0
  141.3789  159.8412  134.3216 H   0  0  0  0  0  0  0  0  0  0  0  0
  142.6170  158.0630  134.5800 C   0  0  0  0  0  0  0  0  0  0  0  0
  141.5240  157.2650  135.2280 C   0  0  0  0  0  0  0  0  0  0  0  0
  141.6186  157.3341  136.3217 H   0  0  0  0  0  0  0  0  0  0  0  0
  140.5464  157.6633  134.9187 H   0  0  0  0  0  0  0  0  0  0  0  0
  141.6056  156.2126  134.9187 H   0  0  0  0  0  0  0  0  0  0  0  0
  143.9030  157.5030  134.4290 C   0  0  0  0  0  0  0  0  0  0  0  0
  144.1149  156.4774  134.7656 H   0  0  0  0  0  0  0  0  0  0  0  0
  144.9020  158.2860  133.8400 C   0  0  0  0  0  0  0  0  0  0  0  0
  146.3790  153.1230  132.6640 C   0  0  0  0  0  0  0  0  0  0  0  0
  146.0710  152.5579  133.5561 H   0  0  0  0  0  0  0  0  0  0  0  0
  145.4918  153.3720  132.0633 H   0  0  0  0  0  0  0  0  0  0  0  0
  147.0690  152.5123  132.0633 H   0  0  0  0  0  0  0  0  0  0  0  0
  149.5590  153.2050  131.9430 C   0  0  0  0  0  0  0  0  0  0  0  0
  150.5519  153.5456  131.6141 H   0  0  0  0  0  0  0  0  0  0  0  0
  148.8986  153.0376  131.0794 H   0  0  0  0  0  0  0  0  0  0  0  0
  149.7100  151.8890  132.6940 C   0  0  0  0  0  0  0  0  0  0  0  0
  149.6881  152.0803  133.7770 H   0  0  0  0  0  0  0  0  0  0  0  0
  148.8832  151.2157  132.4238 H   0  0  0  0  0  0  0  0  0  0  0  0
  150.6678  151.4204  132.4238 H   0  0  0  0  0  0  0  0  0  0  0  0
  1  2  1  0
  3  2  1  6
  3  4  1  0
  4  5  2  0
  5  6  1  0
  5  7  1  0
  7  8  2  0
  7  9  1  0
  9 10  1  0
 10 11  1  0
 11 12  2  0
 11 13  1  0
 13 14  1  0
 13 15  1  0
 10 16  2  0
 16 17  1  0
 16 18  1  0
 18 19  2  0
 19 20  1  0
 19 21  1  0
 21 22  1  0
 21 23  2  0
 23 24  1  0
 24 25  1  0
 24 26  1  0
 24 27  1  0
 23 28  1  0
 28 29  1  0
 28 30  2  0
  4 31  1  0
 31 32  1  0
 31 33  1  0
 31 34  1  0
  3 35  1  0
 35 36  1  0
 35 37  1  0
 35 38  1  0
 38 39  1  0
 38 40  1  0
 38 41  1  0
 30  9  1  0
 30 18  1  0
M  CHG  1   3   1
M  END
>  <UniqueID>  (49) 
48

>  <SMILES>  (49) 
CC[S@@+](O)/C(C)=C\C(=O)n1c(C(N)=O)cc2ccc(C)cc21

>  <Energy>  (49) 
72.10068095333436

>  <Genealogy>  (49) 
CC[S+](O)/C(C)=C\C(=O)n1c(C(N)=O)cc2ccc(C)cc21 (protonated)
CC[S@@+](O)/C(C)=C\C(=O)n1c(C(N)=O)cc2ccc(C)cc21 (chirality)
CC[S@@+](O)/C(C)=C\C(=O)n1c(C(N)=O)cc2ccc(C)cc21 (cis-trans isomerization)
CC[S@@+](O)/C(C)=C\C(=O)n1c(C(N)=O)cc2ccc(C)cc21 (3D coordinates assigned)
CC[S@@+](O)/C(C)=C\C(=O)n1c(C(N)=O)cc2ccc(C)cc21 (optimized conformer: 72.10068095333436 kcal/mol)

>  <smiles>  (49) 
CC[S+]([O-])/C(C)=C\C(=O)n1c(C(N)=O)cc2ccc(C)cc21

>  <score_type>  (49) 
oracle

>  <origin>  (49) 
adg

>  <m_score__min__energy>  (49) 
-7.1299999999999999

>  <m_primary>  (49) 
energy

$$$$
50:0
     RDKit          3D

 39 41  0  0  0  0  0  0  0  0999 V2000
  141.6180  157.2860  134.7610 C   0  0  0  0  0  0  0  0  0  0  0  0
  142.7590  158.1970  134.4180 C   0  0  0  0  0  0  0  0  0  0  0  0
  142.5650  159.6010  134.3970 C   0  0  0  0  0  0  0  0  0  0  0  0
  143.6180  160.4640  134.0490 C   0  0  0  0  0  0  0  0  0  0  0  0
  144.8430  159.8950  133.7110 C   0  0  0  0  0  0  0  0  0  0  0  0
  146.0310  160.4910  133.3510 C   0  0  0  0  0  0  0  0  0  0  0  0
  146.9160  159.4400  133.1220 C   0  0  0  0  0  0  0  0  0  0  0  0
  148.3070  159.6310  132.6580 C   0  0  0  0  0  0  0  0  0  0  0  0
  149.4040  158.9810  133.3020 N   0  0  0  0  0  0  0  0  0  0  0  0
  148.5260  160.3490  131.6460 O   0  0  0  0  0  0  0  0  0  0  0  0
  146.3060  158.2430  133.3500 N   0  0  0  0  0  0  0  0  0  0  0  0
  146.8840  156.9280  133.3160 C   0  0  0  0  0  0  0  0  0  0  0  0
  146.8780  156.2840  132.2340 O   0  0  0  0  0  0  0  0  0  0  0  0
  147.4770  156.3340  134.5370 C   0  0  0  0  0  0  0  0  0  0  0  0
  148.3470  156.9890  135.1730 O   0  0  0  0  0  0  0  0  0  0  0  0
  147.0890  155.0320  135.0160 N   0  0  0  0  0  0  0  0  0  0  0  0
  148.0700  153.9410  135.0370 C   0  0  0  0  0  0  0  0  0  0  0  0
  148.1790  153.3950  136.4550 C   0  0  0  0  0  0  0  0  0  0  0  0
  146.8590  153.0160  136.9440 N   0  0  0  0  0  0  0  0  0  0  0  0
  145.6800  153.7360  136.5710 C   0  0  0  0  0  0  0  0  0  0  0  0
  144.5870  153.4640  137.1320 O   0  0  0  0  0  0  0  0  0  0  0  0
  145.7170  154.7720  135.4790 C   0  0  0  0  0  0  0  0  0  0  0  0
  145.0370  158.5380  133.7010 C   0  0  0  0  0  0  0  0  0  0  0  0
  144.0110  157.6550  134.0550 C   0  0  0  0  0  0  0  0  0  0  0  0
  141.5244  157.2113  135.8545 H   0  0  0  0  0  0  0  0  0  0  0  0
  140.6860  157.6912  134.3401 H   0  0  0  0  0  0  0  0  0  0  0  0
  141.8068  156.2874  134.3401 H   0  0  0  0  0  0  0  0  0  0  0  0
  141.5809  160.0189  134.6556 H   0  0  0  0  0  0  0  0  0  0  0  0
  143.4788  161.5551  134.0438 H   0  0  0  0  0  0  0  0  0  0  0  0
  146.2372  161.5679  133.2630 H   0  0  0  0  0  0  0  0  0  0  0  0
  150.3820  159.1820  132.9970 H   0  0  0  0  0  0  0  0  0  0  0  0
  149.2500  158.2320  134.0120 H   0  0  0  0  0  0  0  0  0  0  0  0
  147.7439  153.1395  134.3578 H   0  0  0  0  0  0  0  0  0  0  0  0
  149.0500  154.3178  134.7089 H   0  0  0  0  0  0  0  0  0  0  0  0
  148.8357  152.5125  136.4565 H   0  0  0  0  0  0  0  0  0  0  0  0
  148.5986  154.1721  137.1108 H   0  0  0  0  0  0  0  0  0  0  0  0
  145.1166  154.4148  134.6293 H   0  0  0  0  0  0  0  0  0  0  0  0
  145.3106  155.7101  135.8850 H   0  0  0  0  0  0  0  0  0  0  0  0
  144.1755  156.5674  134.0506 H   0  0  0  0  0  0  0  0  0  0  0  0
  1  2  1  0
  2  3  2  0
  3  4  1  0
  4  5  2  0
  5  6  1  0
  6  7  2  0
  7  8  1  0
  8  9  1  0
  8 10  2  0
  7 11  1  0
 11 12  1  0
 12 13  2  0
 12 14  1  0
 14 15  2  0
 14 16  1  0
 16 17  1  0
 17 18  1  0
 18 19  1  0
 19 20  1  0
 20 21  2  0
 20 22  1  0
 11 23  1  0
 23 24  2  0
 24  2  1  0
 23  5  1  0
 22 16  1  0
  1 25  1  0
  1 26  1  0
  1 27  1  0
  3 28  1  0
  4 29  1  0
  6 30  1  0
  9 31  1  0
  9 32  1  0
 17 33  1  0
 17 34  1  0
 18 35  1  0
 18 36  1  0
 22 37  1  0
 22 38  1  0
 24 39  1  0
M  CHG  1  19  -1
M  END
>  <UniqueID>  (50) 
49

>  <SMILES>  (50) 
Cc1ccc2cc(C(N)=O)n(C(=O)C(=O)N3CC[N-]C(=O)C3)c2c1

>  <Energy>  (50) 
83.20584079878486

>  <Genealogy>  (50) 
Cc1ccc2cc(C(N)=O)n(C(=O)C(=O)N3CC[N-]C(=O)C3)c2c1 (protonated)
Cc1ccc2cc(C(N)=O)n(C(=O)C(=O)N3CC[N-]C(=O)C3)c2c1 (3D coordinates assigned)
Cc1ccc2cc(C(N)=O)n(C(=O)C(=O)N3CC[N-]C(=O)C3)c2c1 (nonaromatic ring conformer: 83.20584079878486 kcal/mol)

>  <smiles>  (50) 
Cc1ccc2cc(C(N)=O)n(C(=O)C(=O)N3CCNC(=O)C3)c2c1

>  <score_type>  (50) 
oracle

>  <origin>  (50) 
adg

>  <m_score__min__energy>  (50) 
-7.8099999999999996

>  <m_primary>  (50) 
energy

$$$$
51:0
     RDKit          3D

 38 39  0  0  0  0  0  0  0  0999 V2000
  142.0920  159.0380  136.0280 C   0  0  0  0  0  0  0  0  0  0  0  0
  142.5630  159.0780  134.6340 N   0  0  0  0  0  0  0  0  0  0  0  0
  141.6720  158.3010  133.7600 C   0  0  0  0  0  0  0  0  0  0  0  0
  142.6470  160.4480  134.1640 C   0  0  0  0  0  0  0  0  0  0  0  0
  141.6380  161.0390  133.7990 O   0  0  0  0  0  0  0  0  0  0  0  0
  143.9720  161.1600  134.0800 C   0  0  0  0  0  0  0  0  0  0  0  0
  145.0480  160.2280  134.1540 O   0  0  0  0  0  0  0  0  0  0  0  0
  145.1990  159.1540  133.2730 C   0  0  0  0  0  0  0  0  0  0  0  0
  144.2290  158.7750  132.5620 O   0  0  0  0  0  0  0  0  0  0  0  0
  146.4600  158.4710  133.1920 N   0  0  0  0  0  0  0  0  0  0  0  0
  146.8110  157.2880  133.7760 C   0  0  0  0  0  0  0  0  0  0  0  0
  145.9030  156.3620  134.4830 C   0  0  0  0  0  0  0  0  0  0  0  0
  144.5430  156.7100  134.7310 N   0  0  0  0  0  0  0  0  0  0  0  0
  146.3180  155.2220  134.8240 O   0  0  0  0  0  0  0  0  0  0  0  0
  148.1490  156.9940  133.5170 C   0  0  0  0  0  0  0  0  0  0  0  0
  148.6080  158.0320  132.7400 C   0  0  0  0  0  0  0  0  0  0  0  0
  149.8640  158.2430  132.1760 C   0  0  0  0  0  0  0  0  0  0  0  0
  150.0580  159.4070  131.4140 C   0  0  0  0  0  0  0  0  0  0  0  0
  149.0070  160.3380  131.2420 C   0  0  0  0  0  0  0  0  0  0  0  0
  149.2260  161.5290  130.4820 N   0  0  0  0  0  0  0  0  0  0  0  0
  147.7440  160.0910  131.8220 C   0  0  0  0  0  0  0  0  0  0  0  0
  147.5720  158.9130  132.5620 C   0  0  0  0  0  0  0  0  0  0  0  0
  142.9533  159.1112  136.7083 H   0  0  0  0  0  0  0  0  0  0  0  0
  141.4093  159.8814  136.2087 H   0  0  0  0  0  0  0  0  0  0  0  0
  141.5614  158.0915  136.2087 H   0  0  0  0  0  0  0  0  0  0  0  0
  143.5100  158.6320  134.6090 H   0  0  0  0  0  0  0  0  0  0  0  0
  140.9851  157.7020  134.3760 H   0  0  0  0  0  0  0  0  0  0  0  0
  141.0918  158.9867  133.1250 H   0  0  0  0  0  0  0  0  0  0  0  0
  142.2724  157.6329  133.1250 H   0  0  0  0  0  0  0  0  0  0  0  0
  144.0301  161.7042  133.1258 H   0  0  0  0  0  0  0  0  0  0  0  0
  144.0518  161.8614  134.9236 H   0  0  0  0  0  0  0  0  0  0  0  0
  144.1290  157.5850  134.3420 H   0  0  0  0  0  0  0  0  0  0  0  0
  148.7174  156.1174  133.8612 H   0  0  0  0  0  0  0  0  0  0  0  0
  150.6796  157.5197  132.3229 H   0  0  0  0  0  0  0  0  0  0  0  0
  151.0358  159.5962  130.9469 H   0  0  0  0  0  0  0  0  0  0  0  0
  148.4390  161.9940  129.9760 H   0  0  0  0  0  0  0  0  0  0  0  0
  150.1790  161.9500  130.4150 H   0  0  0  0  0  0  0  0  0  0  0  0
  146.9162  160.8045  131.6965 H   0  0  0  0  0  0  0  0  0  0  0  0
  1  2  1  0
  2  3  1  0
  2  4  1  0
  4  5  2  0
  4  6  1  0
  6  7  1  0
  7  8  1  0
  8  9  2  0
  8 10  1  0
 10 11  1  0
 11 12  1  0
 12 13  1  0
 12 14  2  0
 11 15  2  0
 15 16  1  0
 16 17  2  0
 17 18  1  0
 18 19  2  0
 19 20  1  0
 19 21  1  0
 21 22  2  0
 22 10  1  0
 22 16  1  0
  1 23  1  0
  1 24  1  0
  1 25  1  0
  2 26  1  0
  3 27  1  0
  3 28  1  0
  3 29  1  0
  6 30  1  0
  6 31  1  0
 13 32  1  0
 15 33  1  0
 17 34  1  0
 18 35  1  0
 20 36  1  0
 20 37  1  0
 21 38  1  0
M  CHG  2   2   1  13  -1
M  END
>  <UniqueID>  (51) 
50

>  <SMILES>  (51) 
C[NH+](C)C(=O)COC(=O)n1c(C([NH-])=O)cc2ccc(N)cc21

>  <Energy>  (51) 
73.3105431003101

>  <Genealogy>  (51) 
C[NH+](C)C(=O)COC(=O)n1c(C([NH-])=O)cc2ccc(N)cc21 (protonated)
C[NH+](C)C(=O)COC(=O)n1c(C([NH-])=O)cc2ccc(N)cc21 (3D coordinates assigned)
C[NH+](C)C(=O)COC(=O)n1c(C([NH-])=O)cc2ccc(N)cc21 (optimized conformer: 73.3105431003101 kcal/mol)

>  <smiles>  (51) 
CN(C)C(=O)COC(=O)n1c(C(N)=O)cc2ccc(N)cc21

>  <score_type>  (51) 
oracle

>  <origin>  (51) 
adg

>  <m_score__min__energy>  (51) 
-5.1200000000000001

>  <m_primary>  (51) 
energy

$$$$
52:0
     RDKit          3D

 48 49  0  0  0  0  0  0  0  0999 V2000
  139.0780  159.7260  131.6890 C   0  0  0  0  0  0  0  0  0  0  0  0
  138.8080  158.2490  131.9270 C   0  0  0  0  0  0  0  0  0  0  0  0
  139.5330  157.7780  133.1560 C   0  0  0  0  0  0  0  0  0  0  0  0
  139.1040  158.1980  134.4410 C   0  0  0  0  0  0  0  0  0  0  0  0
  139.7100  157.6830  135.6010 C   0  0  0  0  0  0  0  0  0  0  0  0
  140.7470  156.7690  135.4410 C   0  0  0  0  0  0  0  0  0  0  0  0
  141.4180  156.0250  136.3890 C   0  0  0  0  0  0  0  0  0  0  0  0
  142.2710  155.2010  135.6630 C   0  0  0  0  0  0  0  0  0  0  0  0
  143.1230  154.1610  136.2640 C   0  0  0  0  0  0  0  0  0  0  0  0
  144.4350  154.4790  136.7310 N   0  0  0  0  0  0  0  0  0  0  0  0
  142.7180  152.9750  136.3010 O   0  0  0  0  0  0  0  0  0  0  0  0
  142.1480  155.4310  134.3260 N   0  0  0  0  0  0  0  0  0  0  0  0
  142.7180  154.6390  133.2680 C   0  0  0  0  0  0  0  0  0  0  0  0
  142.0840  153.6470  132.8120 O   0  0  0  0  0  0  0  0  0  0  0  0
  144.0150  154.9510  132.7300 N   0  0  0  0  0  0  0  0  0  0  0  0
  144.3400  154.4530  131.3950 C   0  0  0  0  0  0  0  0  0  0  0  0
  144.7740  156.0370  133.3050 C   0  0  0  0  0  0  0  0  0  0  0  0
  144.2610  157.1850  133.3900 O   0  0  0  0  0  0  0  0  0  0  0  0
  146.1160  155.8400  133.7730 N   0  0  0  0  0  0  0  0  0  0  0  0
  147.1020  156.8960  133.5100 C   0  0  0  0  0  0  0  0  0  0  0  0
  146.4170  154.7420  134.6570 C   0  0  0  0  0  0  0  0  0  0  0  0
  146.3850  153.5540  134.2300 O   0  0  0  0  0  0  0  0  0  0  0  0
  146.7630  154.9870  135.9910 O   0  0  0  0  0  0  0  0  0  0  0  0
  148.0340  154.6240  136.5100 C   0  0  0  0  0  0  0  0  0  0  0  0
  147.9790  153.2570  137.1020 C   0  0  0  0  0  0  0  0  0  0  0  0
  146.8820  152.6390  137.1680 O   0  0  0  0  0  0  0  0  0  0  0  0
  149.1380  152.6550  137.5650 O   0  0  0  0  0  0  0  0  0  0  0  0
  141.1960  156.3780  134.2030 C   0  0  0  0  0  0  0  0  0  0  0  0
  140.5850  156.8450  133.0340 C   0  0  0  0  0  0  0  0  0  0  0  0
  139.1723  160.2420  132.6559 H   0  0  0  0  0  0  0  0  0  0  0  0
  140.0120  159.8409  131.1194 H   0  0  0  0  0  0  0  0  0  0  0  0
  138.2450  160.1639  131.1194 H   0  0  0  0  0  0  0  0  0  0  0  0
  137.7272  158.0947  132.0617 H   0  0  0  0  0  0  0  0  0  0  0  0
  139.1651  157.6754  131.0589 H   0  0  0  0  0  0  0  0  0  0  0  0
  138.2904  158.9328  134.5311 H   0  0  0  0  0  0  0  0  0  0  0  0
  139.3752  157.9926  136.6020 H   0  0  0  0  0  0  0  0  0  0  0  0
  141.3033  156.0730  137.4820 H   0  0  0  0  0  0  0  0  0  0  0  0
  144.7740  155.4670  136.7350 H   0  0  0  0  0  0  0  0  0  0  0  0
  145.0410  153.7320  137.1400 H   0  0  0  0  0  0  0  0  0  0  0  0
  144.9393  153.5347  131.4821 H   0  0  0  0  0  0  0  0  0  0  0  0
  143.4105  154.2339  130.8491 H   0  0  0  0  0  0  0  0  0  0  0  0
  144.9148  155.2156  130.8491 H   0  0  0  0  0  0  0  0  0  0  0  0
  147.4750  157.2954  134.4647 H   0  0  0  0  0  0  0  0  0  0  0  0
  147.9413  156.4788  132.9342 H   0  0  0  0  0  0  0  0  0  0  0  0
  146.6284  157.7047  132.9342 H   0  0  0  0  0  0  0  0  0  0  0  0
  148.7754  154.6382  135.6975 H   0  0  0  0  0  0  0  0  0  0  0  0
  148.3196  155.3421  137.2928 H   0  0  0  0  0  0  0  0  0  0  0  0
  140.9160  156.4940  132.0454 H   0  0  0  0  0  0  0  0  0  0  0  0
  1  2  1  0
  2  3  1  0
  3  4  2  0
  4  5  1  0
  5  6  2  0
  6  7  1  0
  7  8  2  0
  8  9  1  0
  9 10  1  0
  9 11  2  0
  8 12  1  0
 12 13  1  0
 13 14  2  0
 13 15  1  0
 15 16  1  0
 15 17  1  0
 17 18  2  0
 17 19  1  0
 19 20  1  0
 19 21  1  0
 21 22  2  0
 21 23  1  0
 23 24  1  0
 24 25  1  0
 25 26  2  0
 25 27  1  0
 12 28  1  0
 28 29  2  0
 29  3  1  0
 28  6  1  0
  1 30  1  0
  1 31  1  0
  1 32  1  0
  2 33  1  0
  2 34  1  0
  4 35  1  0
  5 36  1  0
  7 37  1  0
 10 38  1  0
 10 39  1  0
 16 40  1  0
 16 41  1  0
 16 42  1  0
 20 43  1  0
 20 44  1  0
 20 45  1  0
 24 46  1  0
 24 47  1  0
 29 48  1  0
M  CHG  1  27  -1
M  END
>  <UniqueID>  (52) 
51

>  <SMILES>  (52) 
CCc1ccc2cc(C(N)=O)n(C(=O)N(C)C(=O)N(C)C(=O)OCC(=O)[O-])c2c1

>  <Energy>  (52) 
91.8046880301576

>  <Genealogy>  (52) 
CCc1ccc2cc(C(N)=O)n(C(=O)N(C)C(=O)N(C)C(=O)OCC(=O)[O-])c2c1 (protonated)
CCc1ccc2cc(C(N)=O)n(C(=O)N(C)C(=O)N(C)C(=O)OCC(=O)[O-])c2c1 (3D coordinates assigned)
CCc1ccc2cc(C(N)=O)n(C(=O)N(C)C(=O)N(C)C(=O)OCC(=O)[O-])c2c1 (optimized conformer: 91.8046880301576 kcal/mol)

>  <smiles>  (52) 
CCc1ccc2cc(C(N)=O)n(C(=O)N(C)C(=O)N(C)C(=O)OCC(=O)O)c2c1

>  <score_type>  (52) 
oracle

>  <origin>  (52) 
adg

>  <m_score__min__energy>  (52) 
-7.0899999999999999

>  <m_primary>  (52) 
energy

$$$$
53:0
     RDKit          3D

 27 28  0  0  0  0  0  0  0  0999 V2000
  145.5270  160.4910  132.8890 N   0  0  0  0  0  0  0  0  0  0  0  0
  145.0050  159.3630  133.5940 C   0  0  0  0  0  0  0  0  0  0  0  0
  144.0550  159.5330  134.4020 O   0  0  0  0  0  0  0  0  0  0  0  0
  145.5520  158.0050  133.3660 C   0  0  0  0  0  0  0  0  0  0  0  0
  144.7830  156.8420  133.3460 C   0  0  0  0  0  0  0  0  0  0  0  0
  145.6850  155.8100  133.2120 C   0  0  0  0  0  0  0  0  0  0  0  0
  145.4740  154.4370  133.1510 C   0  0  0  0  0  0  0  0  0  0  0  0
  146.5960  153.6040  133.0090 C   0  0  0  0  0  0  0  0  0  0  0  0
  147.9010  154.1530  132.9110 C   0  0  0  0  0  0  0  0  0  0  0  0
  149.1010  153.2450  132.8040 C   0  0  0  0  0  0  0  0  0  0  0  0
  149.2790  152.5320  133.9760 F   0  0  0  0  0  0  0  0  0  0  0  0
  150.2280  154.0080  132.5650 F   0  0  0  0  0  0  0  0  0  0  0  0
  148.9390  152.3420  131.7670 F   0  0  0  0  0  0  0  0  0  0  0  0
  148.0750  155.5540  133.0040 C   0  0  0  0  0  0  0  0  0  0  0  0
  146.9390  156.3560  133.1540 C   0  0  0  0  0  0  0  0  0  0  0  0
  146.8750  157.7010  133.2420 N   0  0  0  0  0  0  0  0  0  0  0  0
  147.9890  158.6060  133.1840 C   0  0  0  0  0  0  0  0  0  0  0  0
  148.5720  158.9430  134.2500 O   0  0  0  0  0  0  0  0  0  0  0  0
  148.4880  159.1110  131.8970 C   0  0  0  0  0  0  0  0  0  0  0  0
  149.5530  158.6570  131.4020 O   0  0  0  0  0  0  0  0  0  0  0  0
  147.7930  160.1090  131.2250 O   0  0  0  0  0  0  0  0  0  0  0  0
  146.3550  160.4050  132.2590 H   0  0  0  0  0  0  0  0  0  0  0  0
  145.1080  161.4370  133.0320 H   0  0  0  0  0  0  0  0  0  0  0  0
  143.6883  156.7651  133.4213 H   0  0  0  0  0  0  0  0  0  0  0  0
  144.4596  154.0161  133.2121 H   0  0  0  0  0  0  0  0  0  0  0  0
  146.4615  152.5128  132.9733 H   0  0  0  0  0  0  0  0  0  0  0  0
  149.0789  156.0014  132.9594 H   0  0  0  0  0  0  0  0  0  0  0  0
  1  2  1  0
  2  3  2  0
  2  4  1  0
  4  5  2  0
  5  6  1  0
  6  7  2  0
  7  8  1  0
  8  9  2  0
  9 10  1  0
 10 11  1  0
 10 12  1  0
 10 13  1  0
  9 14  1  0
 14 15  2  0
 15 16  1  0
 16 17  1  0
 17 18  2  0
 17 19  1  0
 19 20  2  0
 19 21  1  0
 16  4  1  0
 15  6  1  0
  1 22  1  0
  1 23  1  0
  5 24  1  0
  7 25  1  0
  8 26  1  0
 14 27  1  0
M  CHG  1  21  -1
M  END
>  <UniqueID>  (53) 
52

>  <SMILES>  (53) 
NC(=O)c1cc2ccc(C(F)(F)F)cc2n1C(=O)C(=O)[O-]

>  <Energy>  (53) 
67.39186499882537

>  <Genealogy>  (53) 
NC(=O)c1cc2ccc(C(F)(F)F)cc2n1C(=O)C(=O)[O-] (protonated)
NC(=O)c1cc2ccc(C(F)(F)F)cc2n1C(=O)C(=O)[O-] (3D coordinates assigned)
NC(=O)c1cc2ccc(C(F)(F)F)cc2n1C(=O)C(=O)[O-] (optimized conformer: 67.39186499882537 kcal/mol)

>  <smiles>  (53) 
NC(=O)c1cc2ccc(C(F)(F)F)cc2n1C(=O)C(=O)O

>  <score_type>  (53) 
oracle

>  <origin>  (53) 
adg

>  <m_score__min__energy>  (53) 
-5.7000000000000002

>  <m_primary>  (53) 
energy

$$$$
54:0
     RDKit          3D

 45 46  0  0  0  0  0  0  0  0999 V2000
  147.2340  156.2170  135.2240 C   0  0  0  0  0  0  0  0  0  0  0  0
  147.3900  155.6860  133.8670 N   0  0  0  0  0  0  0  0  0  0  0  0
  147.7960  154.2940  133.6540 C   0  0  0  0  0  0  0  0  0  0  0  0
  147.0950  156.5190  132.7300 C   0  0  0  0  0  0  0  0  0  0  0  0
  146.9990  156.0120  131.5800 O   0  0  0  0  0  0  0  0  0  0  0  0
  146.8840  157.9290  132.8910 N   0  0  0  0  0  0  0  0  0  0  0  0
  147.7890  158.9340  132.7310 C   0  0  0  0  0  0  0  0  0  0  0  0
  149.1870  158.7740  132.2780 C   0  0  0  0  0  0  0  0  0  0  0  0
  149.7020  157.4950  131.9240 N   0  0  0  0  0  0  0  0  0  0  0  0
  149.9350  159.7840  132.1930 O   0  0  0  0  0  0  0  0  0  0  0  0
  147.2010  160.1650  133.0210 C   0  0  0  0  0  0  0  0  0  0  0  0
  145.8960  159.8730  133.3580 C   0  0  0  0  0  0  0  0  0  0  0  0
  144.8610  160.7130  133.7410 C   0  0  0  0  0  0  0  0  0  0  0  0
  143.6170  160.1350  134.0420 C   0  0  0  0  0  0  0  0  0  0  0  0
  143.4130  158.7250  133.9580 C   0  0  0  0  0  0  0  0  0  0  0  0
  142.1180  158.1290  134.2680 N   0  0  0  0  0  0  0  0  0  0  0  0
  141.6570  158.0400  135.6620 C   0  0  0  0  0  0  0  0  0  0  0  0
  141.2380  157.5980  133.2110 C   0  0  0  0  0  0  0  0  0  0  0  0
  140.1360  158.5680  132.8990 C   0  0  0  0  0  0  0  0  0  0  0  0
  139.1170  158.6110  133.6410 O   0  0  0  0  0  0  0  0  0  0  0  0
  140.2280  159.4220  131.7510 N   0  0  0  0  0  0  0  0  0  0  0  0
  139.1940  160.4120  131.4570 C   0  0  0  0  0  0  0  0  0  0  0  0
  137.8960  159.7600  131.2480 C   0  0  0  0  0  0  0  0  0  0  0  0
  136.8720  159.2460  131.0820 N   0  0  0  0  0  0  0  0  0  0  0  0
  144.5110  157.9100  133.5640 C   0  0  0  0  0  0  0  0  0  0  0  0
  145.7320  158.5200  133.2670 C   0  0  0  0  0  0  0  0  0  0  0  0
  147.4657  155.4285  135.9552 H   0  0  0  0  0  0  0  0  0  0  0  0
  147.9213  157.0637  135.3677 H   0  0  0  0  0  0  0  0  0  0  0  0
  146.1979  156.5574  135.3677 H   0  0  0  0  0  0  0  0  0  0  0  0
  147.9398  153.8011  134.6268 H   0  0  0  0  0  0  0  0  0  0  0  0
  147.0143  153.7666  133.0877 H   0  0  0  0  0  0  0  0  0  0  0  0
  148.7387  154.2696  133.0877 H   0  0  0  0  0  0  0  0  0  0  0  0
  149.0730  156.7400  131.5720 H   0  0  0  0  0  0  0  0  0  0  0  0
  147.6764  161.1564  132.9880 H   0  0  0  0  0  0  0  0  0  0  0  0
  145.0102  161.8008  133.8071 H   0  0  0  0  0  0  0  0  0  0  0  0
  142.7825  160.7825  134.3489 H   0  0  0  0  0  0  0  0  0  0  0  0
  142.5071  158.2041  136.3405 H   0  0  0  0  0  0  0  0  0  0  0  0
  140.8893  158.8065  135.8440 H   0  0  0  0  0  0  0  0  0  0  0  0
  141.2298  157.0428  135.8440 H   0  0  0  0  0  0  0  0  0  0  0  0
  141.8318  157.4219  132.3019 H   0  0  0  0  0  0  0  0  0  0  0  0
  140.7906  156.6571  133.5638 H   0  0  0  0  0  0  0  0  0  0  0  0
  141.0580  159.3280  131.1210 H   0  0  0  0  0  0  0  0  0  0  0  0
  139.1144  161.1126  132.3013 H   0  0  0  0  0  0  0  0  0  0  0  0
  139.4711  160.9507  130.5388 H   0  0  0  0  0  0  0  0  0  0  0  0
  144.4001  156.8178  133.4945 H   0  0  0  0  0  0  0  0  0  0  0  0
  1  2  1  0
  2  3  1  0
  2  4  1  0
  4  5  2  0
  4  6  1  0
  6  7  1  0
  7  8  1  0
  8  9  1  0
  8 10  2  0
  7 11  2  0
 11 12  1  0
 12 13  2  0
 13 14  1  0
 14 15  2  0
 15 16  1  0
 16 17  1  0
 16 18  1  0
 18 19  1  0
 19 20  2  0
 19 21  1  0
 21 22  1  0
 22 23  1  0
 23 24  3  0
 15 25  1  0
 25 26  2  0
 26  6  1  0
 26 12  1  0
  1 27  1  0
  1 28  1  0
  1 29  1  0
  3 30  1  0
  3 31  1  0
  3 32  1  0
  9 33  1  0
 11 34  1  0
 13 35  1  0
 14 36  1  0
 17 37  1  0
 17 38  1  0
 17 39  1  0
 18 40  1  0
 18 41  1  0
 21 42  1  0
 22 43  1  0
 22 44  1  0
 25 45  1  0
M  CHG  1   9  -1
M  END
>  <UniqueID>  (54) 
53

>  <SMILES>  (54) 
CN(C)C(=O)n1c(C([NH-])=O)cc2ccc(N(C)CC(=O)NCC#N)cc21

>  <Energy>  (54) 
79.33675899650737

>  <Genealogy>  (54) 
CN(C)C(=O)n1c(C([NH-])=O)cc2ccc(N(C)CC(=O)NCC#N)cc21 (protonated)
CN(C)C(=O)n1c(C([NH-])=O)cc2ccc(N(C)CC(=O)NCC#N)cc21 (3D coordinates assigned)
CN(C)C(=O)n1c(C([NH-])=O)cc2ccc(N(C)CC(=O)NCC#N)cc21 (optimized conformer: 79.33675899650737 kcal/mol)

>  <smiles>  (54) 
CN(C)C(=O)n1c(C(N)=O)cc2ccc(N(C)CC(=O)NCC#N)cc21

>  <score_type>  (54) 
oracle

>  <origin>  (54) 
adg

>  <m_score__min__energy>  (54) 
-7.6200000000000001

>  <m_primary>  (54) 
energy

$$$$
55:0
     RDKit          3D

 47 49  0  0  0  0  0  0  0  0999 V2000
  145.4290  154.4000  135.1820 C   0  0  0  0  0  0  0  0  0  0  0  0
  146.3680  155.4310  134.6130 C   0  0  0  0  0  0  0  0  0  0  0  0
  146.0810  155.9610  133.4080 C   0  0  0  0  0  0  0  0  0  0  0  0
  146.8150  157.0720  132.7570 C   0  0  0  0  0  0  0  0  0  0  0  0
  147.8070  156.8420  132.0140 O   0  0  0  0  0  0  0  0  0  0  0  0
  146.4210  158.4320  132.9950 N   0  0  0  0  0  0  0  0  0  0  0  0
  147.2000  159.5490  132.9990 C   0  0  0  0  0  0  0  0  0  0  0  0
  148.6170  159.6200  132.5900 C   0  0  0  0  0  0  0  0  0  0  0  0
  149.5540  158.6120  132.9750 N   0  0  0  0  0  0  0  0  0  0  0  0
  149.0010  160.5640  131.8480 O   0  0  0  0  0  0  0  0  0  0  0  0
  146.4600  160.6590  133.4020 C   0  0  0  0  0  0  0  0  0  0  0  0
  145.1870  160.1850  133.6300 C   0  0  0  0  0  0  0  0  0  0  0  0
  144.0450  160.8510  134.0630 C   0  0  0  0  0  0  0  0  0  0  0  0
  142.8730  160.0980  134.2430 C   0  0  0  0  0  0  0  0  0  0  0  0
  142.8600  158.7020  133.9910 C   0  0  0  0  0  0  0  0  0  0  0  0
  141.6570  157.9350  134.2040 N   0  0  0  0  0  0  0  0  0  0  0  0
  141.7110  156.6050  134.8240 C   0  0  0  0  0  0  0  0  0  0  0  0
  141.0590  155.5540  133.9100 C   0  0  0  0  0  0  0  0  0  0  0  0
  139.8680  156.1080  133.0850 C   0  0  0  0  0  0  0  0  0  0  0  0
  138.8570  155.1410  132.9810 O   0  0  0  0  0  0  0  0  0  0  0  0
  139.2840  157.3840  133.7090 C   0  0  0  0  0  0  0  0  0  0  0  0
  140.3570  158.4810  133.7850 C   0  0  0  0  0  0  0  0  0  0  0  0
  144.0440  158.0620  133.5620 C   0  0  0  0  0  0  0  0  0  0  0  0
  145.1920  158.8390  133.3770 C   0  0  0  0  0  0  0  0  0  0  0  0
  147.6320  155.7020  135.3340 C   0  0  0  0  0  0  0  0  0  0  0  0
  148.2760  156.7600  135.1070 O   0  0  0  0  0  0  0  0  0  0  0  0
  148.0870  154.8320  136.3190 O   0  0  0  0  0  0  0  0  0  0  0  0
  145.4642  154.4387  136.2808 H   0  0  0  0  0  0  0  0  0  0  0  0
  144.4045  154.6089  134.8404 H   0  0  0  0  0  0  0  0  0  0  0  0
  145.7325  153.3994  134.8404 H   0  0  0  0  0  0  0  0  0  0  0  0
  145.2288  155.5324  132.8603 H   0  0  0  0  0  0  0  0  0  0  0  0
  150.5620  158.7100  132.7210 H   0  0  0  0  0  0  0  0  0  0  0  0
  149.2410  157.7280  133.4320 H   0  0  0  0  0  0  0  0  0  0  0  0
  146.8166  161.6935  133.5141 H   0  0  0  0  0  0  0  0  0  0  0  0
  144.0594  161.9334  134.2583 H   0  0  0  0  0  0  0  0  0  0  0  0
  141.9538  160.5970  134.5836 H   0  0  0  0  0  0  0  0  0  0  0  0
  142.7617  156.3301  134.9987 H   0  0  0  0  0  0  0  0  0  0  0  0
  141.1619  156.6356  135.7767 H   0  0  0  0  0  0  0  0  0  0  0  0
  141.8215  155.1779  133.2120 H   0  0  0  0  0  0  0  0  0  0  0  0
  140.6621  154.7602  134.5599 H   0  0  0  0  0  0  0  0  0  0  0  0
  140.2534  156.3574  132.0854 H   0  0  0  0  0  0  0  0  0  0  0  0
  138.0440  155.6140  132.6590 H   0  0  0  0  0  0  0  0  0  0  0  0
  138.4457  157.7388  133.0915 H   0  0  0  0  0  0  0  0  0  0  0  0
  138.9333  157.1561  134.7264 H   0  0  0  0  0  0  0  0  0  0  0  0
  140.4664  158.9434  132.7929 H   0  0  0  0  0  0  0  0  0  0  0  0
  140.0384  159.2246  134.5304 H   0  0  0  0  0  0  0  0  0  0  0  0
  144.0626  156.9777  133.3777 H   0  0  0  0  0  0  0  0  0  0  0  0
  1  2  1  0
  2  3  2  3
  3  4  1  0
  4  5  2  0
  4  6  1  0
  6  7  1  0
  7  8  1  0
  8  9  1  0
  8 10  2  0
  7 11  2  0
 11 12  1  0
 12 13  2  0
 13 14  1  0
 14 15  2  0
 15 16  1  0
 16 17  1  0
 17 18  1  0
 18 19  1  0
 19 20  1  0
 19 21  1  0
 21 22  1  0
 15 23  1  0
 23 24  2  0
  2 25  1  0
 25 26  2  0
 25 27  1  0
 24  6  1  0
 24 12  1  0
 22 16  1  0
  1 28  1  0
  1 29  1  0
  1 30  1  0
  3 31  1  0
  9 32  1  0
  9 33  1  0
 11 34  1  0
 13 35  1  0
 14 36  1  0
 17 37  1  0
 17 38  1  0
 18 39  1  0
 18 40  1  0
 19 41  1  0
 20 42  1  0
 21 43  1  0
 21 44  1  0
 22 45  1  0
 22 46  1  0
 23 47  1  0
M  CHG  1  27  -1
M  END
>  <UniqueID>  (55) 
54

>  <SMILES>  (55) 
CC(=CC(=O)n1c(C(N)=O)cc2ccc(N3CCC(O)CC3)cc21)C(=O)[O-]

>  <Energy>  (55) 
100.612291332392

>  <Genealogy>  (55) 
CC(=CC(=O)n1c(C(N)=O)cc2ccc(N3CCC(O)CC3)cc21)C(=O)[O-] (protonated)
CC(=CC(=O)n1c(C(N)=O)cc2ccc(N3CCC(O)CC3)cc21)C(=O)[O-] (3D coordinates assigned)
CC(=CC(=O)n1c(C(N)=O)cc2ccc(N3CCC(O)CC3)cc21)C(=O)[O-] (nonaromatic ring conformer: 100.612291332392 kcal/mol)

>  <smiles>  (55) 
CC(=CC(=O)n1c(C(N)=O)cc2ccc(N3CCC(O)CC3)cc21)C(=O)O

>  <score_type>  (55) 
oracle

>  <origin>  (55) 
adg

>  <m_score__min__energy>  (55) 
-8.5500000000000007

>  <m_primary>  (55) 
energy

$$$$
56:0
     RDKit          3D

 48 49  0  0  0  0  0  0  0  0999 V2000
  140.7440  152.4750  139.8710 C   0  0  0  0  0  0  0  0  0  0  0  0
  140.8620  152.4510  138.3430 C   0  0  2  0  0  0  0  0  0  0  0  0
  140.9550  151.0380  137.8430 C   0  0  0  0  0  0  0  0  0  0  0  0
  141.3350  150.1170  138.6130 O   0  0  0  0  0  0  0  0  0  0  0  0
  140.6090  150.7340  136.5310 O   0  0  0  0  0  0  0  0  0  0  0  0
  142.0520  153.2350  137.8550 C   0  0  0  0  0  0  0  0  0  0  0  0
  143.2140  152.9470  138.2520 O   0  0  0  0  0  0  0  0  0  0  0  0
  141.8850  154.2110  136.8190 N   0  0  0  0  0  0  0  0  0  0  0  0
  141.6420  155.5450  136.9510 C   0  0  0  0  0  0  0  0  0  0  0  0
  141.6450  156.3020  138.2190 C   0  0  0  0  0  0  0  0  0  0  0  0
  142.4050  155.8530  139.3380 N   0  0  0  0  0  0  0  0  0  0  0  0
  140.9900  157.3750  138.3080 O   0  0  0  0  0  0  0  0  0  0  0  0
  141.4190  156.1230  135.7010 C   0  0  0  0  0  0  0  0  0  0  0  0
  141.5320  155.0890  134.7960 C   0  0  0  0  0  0  0  0  0  0  0  0
  141.3780  155.0830  133.4140 C   0  0  0  0  0  0  0  0  0  0  0  0
  141.5090  153.8540  132.7430 C   0  0  0  0  0  0  0  0  0  0  0  0
  141.7810  152.6600  133.4560 C   0  0  0  0  0  0  0  0  0  0  0  0
  141.8780  151.4200  132.7300 N   0  0  0  0  0  0  0  0  0  0  0  0
  141.2290  150.1680  133.1300 C   0  0  0  0  0  0  0  0  0  0  0  0
  140.0250  149.8470  132.2300 C   0  0  0  0  0  0  0  0  0  0  0  0
  140.2310  148.5500  131.4350 C   0  0  0  0  0  0  0  0  0  0  0  0
  139.0160  148.2210  130.6570 N   0  0  0  0  0  0  0  0  0  0  0  0
  138.7380  149.2540  129.6440 C   0  0  0  0  0  0  0  0  0  0  0  0
  139.1760  146.9170  129.9910 C   0  0  0  0  0  0  0  0  0  0  0  0
  141.9490  152.7130  134.8610 C   0  0  0  0  0  0  0  0  0  0  0  0
  141.8150  153.9490  135.4990 C   0  0  0  0  0  0  0  0  0  0  0  0
  141.7289  152.2747  140.3180 H   0  0  0  0  0  0  0  0  0  0  0  0
  140.3882  153.4639  140.1958 H   0  0  0  0  0  0  0  0  0  0  0  0
  140.0302  151.7037  140.1958 H   0  0  0  0  0  0  0  0  0  0  0  0
  139.9533  152.9256  137.9443 H   0  0  0  0  0  0  0  0  0  0  0  0
  143.1300  155.1100  139.2320 H   0  0  0  0  0  0  0  0  0  0  0  0
  141.1997  157.1788  135.4837 H   0  0  0  0  0  0  0  0  0  0  0  0
  141.1607  156.0100  132.8632 H   0  0  0  0  0  0  0  0  0  0  0  0
  141.3987  153.8191  131.6491 H   0  0  0  0  0  0  0  0  0  0  0  0
  142.4210  151.4090  131.8360 H   0  0  0  0  0  0  0  0  0  0  0  0
  141.9585  149.3479  133.0576 H   0  0  0  0  0  0  0  0  0  0  0  0
  140.8684  150.2801  134.1631 H   0  0  0  0  0  0  0  0  0  0  0  0
  139.1296  149.7391  132.8598 H   0  0  0  0  0  0  0  0  0  0  0  0
  139.9088  150.6714  131.5111 H   0  0  0  0  0  0  0  0  0  0  0  0
  141.0785  148.6786  130.7457 H   0  0  0  0  0  0  0  0  0  0  0  0
  140.4359  147.7298  132.1388 H   0  0  0  0  0  0  0  0  0  0  0  0
  138.4835  150.1997  130.1449 H   0  0  0  0  0  0  0  0  0  0  0  0
  139.6288  149.4002  129.0154 H   0  0  0  0  0  0  0  0  0  0  0  0
  137.8942  148.9334  129.0154 H   0  0  0  0  0  0  0  0  0  0  0  0
  139.2729  146.1270  130.7502 H   0  0  0  0  0  0  0  0  0  0  0  0
  138.2958  146.7157  129.3627 H   0  0  0  0  0  0  0  0  0  0  0  0
  140.0787  146.9345  129.3627 H   0  0  0  0  0  0  0  0  0  0  0  0
  142.1793  151.8039  135.4359 H   0  0  0  0  0  0  0  0  0  0  0  0
  1  2  1  0
  2  3  1  0
  3  4  2  0
  3  5  1  0
  2  6  1  0
  6  7  2  0
  6  8  1  0
  8  9  1  0
  9 10  1  0
 10 11  1  0
 10 12  2  0
  9 13  2  0
 13 14  1  0
 14 15  2  0
 15 16  1  0
 16 17  2  0
 17 18  1  0
 18 19  1  0
 19 20  1  0
 20 21  1  0
 21 22  1  0
 22 23  1  0
 22 24  1  0
 17 25  1  0
 25 26  2  0
 26  8  1  0
 26 14  1  0
  1 27  1  0
  1 28  1  0
  1 29  1  0
  2 30  1  6
 11 31  1  0
 13 32  1  0
 15 33  1  0
 16 34  1  0
 18 35  1  0
 19 36  1  0
 19 37  1  0
 20 38  1  0
 20 39  1  0
 21 40  1  0
 21 41  1  0
 23 42  1  0
 23 43  1  0
 23 44  1  0
 24 45  1  0
 24 46  1  0
 24 47  1  0
 25 48  1  0
M  CHG  2   5  -1  11  -1
M  END
>  <UniqueID>  (56) 
55

>  <SMILES>  (56) 
C[C@H](C(=O)[O-])C(=O)n1c(C([NH-])=O)cc2ccc(NCCCN(C)C)cc21

>  <Energy>  (56) 
80.11571075898098

>  <Genealogy>  (56) 
CC(C(=O)[O-])C(=O)n1c(C([NH-])=O)cc2ccc(NCCCN(C)C)cc21 (protonated)
C[C@H](C(=O)[O-])C(=O)n1c(C([NH-])=O)cc2ccc(NCCCN(C)C)cc21 (chirality)
C[C@H](C(=O)[O-])C(=O)n1c(C([NH-])=O)cc2ccc(NCCCN(C)C)cc21 (3D coordinates assigned)
C[C@H](C(=O)[O-])C(=O)n1c(C([NH-])=O)cc2ccc(NCCCN(C)C)cc21 (optimized conformer: 80.11571075898098 kcal/mol)

>  <smiles>  (56) 
CC(C(=O)O)C(=O)n1c(C(N)=O)cc2ccc(NCCCN(C)C)cc21

>  <score_type>  (56) 
oracle

>  <origin>  (56) 
adg

>  <m_score__min__energy>  (56) 
-7.7800000000000002

>  <m_primary>  (56) 
energy

$$$$
57:0
     RDKit          3D

 38 40  0  0  0  0  0  0  0  0999 V2000
  142.9480  151.1580  132.9790 C   0  0  0  0  0  0  0  0  0  0  0  0
  142.1540  152.4110  133.1480 C   0  0  0  0  0  0  0  0  0  0  0  0
  140.8960  152.5530  132.8010 O   0  0  0  0  0  0  0  0  0  0  0  0
  140.5680  153.7790  133.1350 C   0  0  0  0  0  0  0  0  0  0  0  0
  139.4240  154.2720  132.9470 O   0  0  0  0  0  0  0  0  0  0  0  0
  141.5620  154.4370  133.6880 O   0  0  0  0  0  0  0  0  0  0  0  0
  142.5730  153.6020  133.7130 C   0  0  0  0  0  0  0  0  0  0  0  0
  143.9270  153.9210  134.2700 C   0  0  0  0  0  0  0  0  0  0  0  0
  144.1210  155.3320  134.3320 O   0  0  0  0  0  0  0  0  0  0  0  0
  143.8180  156.1950  133.2730 C   0  0  0  0  0  0  0  0  0  0  0  0
  143.6030  155.7330  132.1180 O   0  0  0  0  0  0  0  0  0  0  0  0
  143.7360  157.6090  133.5050 N   0  0  0  0  0  0  0  0  0  0  0  0
  142.6070  158.3590  133.6530 C   0  0  0  0  0  0  0  0  0  0  0  0
  141.2300  157.8370  133.7590 C   0  0  0  0  0  0  0  0  0  0  0  0
  140.8000  156.7180  132.9800 N   0  0  0  0  0  0  0  0  0  0  0  0
  140.4350  158.3520  134.5890 O   0  0  0  0  0  0  0  0  0  0  0  0
  142.9250  159.7100  133.7550 C   0  0  0  0  0  0  0  0  0  0  0  0
  144.2990  159.7660  133.6800 C   0  0  0  0  0  0  0  0  0  0  0  0
  145.1520  160.8620  133.7310 C   0  0  0  0  0  0  0  0  0  0  0  0
  146.5320  160.6300  133.6060 C   0  0  0  0  0  0  0  0  0  0  0  0
  147.0310  159.3170  133.4050 C   0  0  0  0  0  0  0  0  0  0  0  0
  148.5160  159.0760  133.3080 C   0  0  0  0  0  0  0  0  0  0  0  0
  149.0970  160.1000  132.5830 F   0  0  0  0  0  0  0  0  0  0  0  0
  149.0890  159.0340  134.5670 F   0  0  0  0  0  0  0  0  0  0  0  0
  148.7760  157.8720  132.6750 F   0  0  0  0  0  0  0  0  0  0  0  0
  146.1310  158.2260  133.3810 C   0  0  0  0  0  0  0  0  0  0  0  0
  144.7640  158.4850  133.5290 C   0  0  0  0  0  0  0  0  0  0  0  0
  143.2058  150.7511  133.9679 H   0  0  0  0  0  0  0  0  0  0  0  0
  142.3529  150.4191  132.4223 H   0  0  0  0  0  0  0  0  0  0  0  0
  143.8702  151.3806  132.4223 H   0  0  0  0  0  0  0  0  0  0  0  0
  144.0106  153.4992  135.2825 H   0  0  0  0  0  0  0  0  0  0  0  0
  144.6940  153.4847  133.6132 H   0  0  0  0  0  0  0  0  0  0  0  0
  141.4780  156.1590  132.4170 H   0  0  0  0  0  0  0  0  0  0  0  0
  139.8090  156.3920  133.0340 H   0  0  0  0  0  0  0  0  0  0  0  0
  142.2279  160.5530  133.8708 H   0  0  0  0  0  0  0  0  0  0  0  0
  144.7585  161.8804  133.8652 H   0  0  0  0  0  0  0  0  0  0  0  0
  147.2333  161.4755  133.6646 H   0  0  0  0  0  0  0  0  0  0  0  0
  146.4975  157.1973  133.2490 H   0  0  0  0  0  0  0  0  0  0  0  0
  1  2  1  0
  2  3  1  0
  3  4  1  0
  4  5  2  0
  4  6  1  0
  6  7  1  0
  7  8  1  0
  8  9  1  0
  9 10  1  0
 10 11  2  0
 10 12  1  0
 12 13  1  0
 13 14  1  0
 14 15  1  0
 14 16  2  0
 13 17  2  0
 17 18  1  0
 18 19  2  0
 19 20  1  0
 20 21  2  0
 21 22  1  0
 22 23  1  0
 22 24  1  0
 22 25  1  0
 21 26  1  0
 26 27  2  0
  7  2  2  0
 27 12  1  0
 27 18  1  0
  1 28  1  0
  1 29  1  0
  1 30  1  0
  8 31  1  0
  8 32  1  0
 15 33  1  0
 15 34  1  0
 17 35  1  0
 19 36  1  0
 20 37  1  0
 26 38  1  0
M  END
>  <UniqueID>  (57) 
56

>  <SMILES>  (57) 
Cc1oc(=O)oc1COC(=O)n1c(C(N)=O)cc2ccc(C(F)(F)F)cc21

>  <Energy>  (57) 
108.93264318619862

>  <Genealogy>  (57) 
Cc1oc(=O)oc1COC(=O)n1c(C(N)=O)cc2ccc(C(F)(F)F)cc21 (3D coordinates assigned)
Cc1oc(=O)oc1COC(=O)n1c(C(N)=O)cc2ccc(C(F)(F)F)cc21 (optimized conformer: 108.93264318619862 kcal/mol)

>  <smiles>  (57) 
Cc1oc(=O)oc1COC(=O)n1c(C(N)=O)cc2ccc(C(F)(F)F)cc21

>  <score_type>  (57) 
oracle

>  <origin>  (57) 
adg

>  <m_score__min__energy>  (57) 
-6.3899999999999997

>  <m_primary>  (57) 
energy

$$$$
58:0
     RDKit          3D

 42 43  0  0  0  0  0  0  0  0999 V2000
  150.3380  150.4220  131.0170 C   0  0  0  0  0  0  0  0  0  0  0  0
  150.0890  151.2360  132.1560 O   0  0  0  0  0  0  0  0  0  0  0  0
  149.0080  152.1190  132.2280 C   0  0  0  0  0  0  0  0  0  0  0  0
  149.1960  153.3630  132.3100 O   0  0  0  0  0  0  0  0  0  0  0  0
  147.6140  151.5830  132.1710 C   0  0  0  0  0  0  0  0  0  0  0  0
  146.6480  152.6730  132.2670 N   0  0  0  0  0  0  0  0  0  0  0  0
  145.2420  152.4470  132.4180 C   0  0  0  0  0  0  0  0  0  0  0  0
  144.7850  151.2710  132.4260 O   0  0  0  0  0  0  0  0  0  0  0  0
  144.3830  153.5420  132.5560 O   0  0  0  0  0  0  0  0  0  0  0  0
  144.4660  154.6970  131.7270 C   0  0  0  0  0  0  0  0  0  0  0  0
  145.7800  155.2390  131.7930 O   0  0  0  0  0  0  0  0  0  0  0  0
  146.3110  155.8020  132.9570 C   0  0  0  0  0  0  0  0  0  0  0  0
  146.6930  155.0610  133.9030 O   0  0  0  0  0  0  0  0  0  0  0  0
  146.4480  157.2280  133.0610 N   0  0  0  0  0  0  0  0  0  0  0  0
  147.5450  157.9880  132.7840 C   0  0  0  0  0  0  0  0  0  0  0  0
  148.8960  157.4830  132.4640 C   0  0  0  0  0  0  0  0  0  0  0  0
  149.2160  156.1020  132.6070 N   0  0  0  0  0  0  0  0  0  0  0  0
  149.7950  158.2890  132.1060 O   0  0  0  0  0  0  0  0  0  0  0  0
  147.2510  159.3430  132.9280 C   0  0  0  0  0  0  0  0  0  0  0  0
  145.9320  159.3910  133.3160 C   0  0  0  0  0  0  0  0  0  0  0  0
  145.1210  160.4860  133.6010 C   0  0  0  0  0  0  0  0  0  0  0  0
  143.7850  160.2410  133.9590 C   0  0  0  0  0  0  0  0  0  0  0  0
  143.2820  158.9180  134.0060 C   0  0  0  0  0  0  0  0  0  0  0  0
  141.8630  158.6690  134.4180 C   0  0  0  0  0  0  0  0  0  0  0  0
  144.1370  157.8310  133.7230 C   0  0  0  0  0  0  0  0  0  0  0  0
  145.4690  158.1030  133.3880 C   0  0  0  0  0  0  0  0  0  0  0  0
  150.6452  149.4177  131.3441 H   0  0  0  0  0  0  0  0  0  0  0  0
  149.4218  150.3466  130.4129 H   0  0  0  0  0  0  0  0  0  0  0  0
  151.1396  150.8720  130.4129 H   0  0  0  0  0  0  0  0  0  0  0  0
  147.4682  151.0516  131.2190 H   0  0  0  0  0  0  0  0  0  0  0  0
  147.4608  150.8937  133.0145 H   0  0  0  0  0  0  0  0  0  0  0  0
  146.9980  153.6570  132.2680 H   0  0  0  0  0  0  0  0  0  0  0  0
  144.2366  154.4189  130.6878 H   0  0  0  0  0  0  0  0  0  0  0  0
  143.7429  155.4492  132.0753 H   0  0  0  0  0  0  0  0  0  0  0  0
  148.4660  155.3790  132.6610 H   0  0  0  0  0  0  0  0  0  0  0  0
  147.9296  160.1934  132.7658 H   0  0  0  0  0  0  0  0  0  0  0  0
  145.5144  161.5118  133.5475 H   0  0  0  0  0  0  0  0  0  0  0  0
  143.1234  161.0846  134.2051 H   0  0  0  0  0  0  0  0  0  0  0  0
  141.7966  158.6574  135.5159 H   0  0  0  0  0  0  0  0  0  0  0  0
  141.2201  159.4681  134.0203 H   0  0  0  0  0  0  0  0  0  0  0  0
  141.5306  157.6988  134.0203 H   0  0  0  0  0  0  0  0  0  0  0  0
  143.7661  156.7962  133.7646 H   0  0  0  0  0  0  0  0  0  0  0  0
  1  2  1  0
  2  3  1  0
  3  4  2  0
  3  5  1  0
  5  6  1  0
  6  7  1  0
  7  8  2  0
  7  9  1  0
  9 10  1  0
 10 11  1  0
 11 12  1  0
 12 13  2  0
 12 14  1  0
 14 15  1  0
 15 16  1  0
 16 17  1  0
 16 18  2  0
 15 19  2  0
 19 20  1  0
 20 21  2  0
 21 22  1  0
 22 23  2  0
 23 24  1  0
 23 25  1  0
 25 26  2  0
 26 14  1  0
 26 20  1  0
  1 27  1  0
  1 28  1  0
  1 29  1  0
  5 30  1  0
  5 31  1  0
  6 32  1  0
 10 33  1  0
 10 34  1  0
 17 35  1  0
 19 36  1  0
 21 37  1  0
 22 38  1  0
 24 39  1  0
 24 40  1  0
 24 41  1  0
 25 42  1  0
M  CHG  1  17  -1
M  END
>  <UniqueID>  (58) 
57

>  <SMILES>  (58) 
COC(=O)CNC(=O)OCOC(=O)n1c(C([NH-])=O)cc2ccc(C)cc21

>  <Energy>  (58) 
70.59892704235878

>  <Genealogy>  (58) 
COC(=O)CNC(=O)OCOC(=O)n1c(C([NH-])=O)cc2ccc(C)cc21 (protonated)
COC(=O)CNC(=O)OCOC(=O)n1c(C([NH-])=O)cc2ccc(C)cc21 (3D coordinates assigned)
COC(=O)CNC(=O)OCOC(=O)n1c(C([NH-])=O)cc2ccc(C)cc21 (optimized conformer: 70.59892704235878 kcal/mol)

>  <smiles>  (58) 
COC(=O)CNC(=O)OCOC(=O)n1c(C(N)=O)cc2ccc(C)cc21

>  <score_type>  (58) 
oracle

>  <origin>  (58) 
adg

>  <m_score__min__energy>  (58) 
-5.7199999999999998

>  <m_primary>  (58) 
energy

$$$$
59:0
     RDKit          3D

 37 38  0  0  0  0  0  0  0  0999 V2000
  143.8130  152.6220  132.9700 C   0  0  0  0  0  0  0  0  0  0  0  0
  143.0620  151.6580  133.6980 O   0  0  0  0  0  0  0  0  0  0  0  0
  141.7280  151.8620  134.0650 C   0  0  0  0  0  0  0  0  0  0  0  0
  141.3250  151.5580  135.2200 O   0  0  0  0  0  0  0  0  0  0  0  0
  140.7800  152.4760  133.0840 C   0  0  0  0  0  0  0  0  0  0  0  0
  141.0530  153.8670  132.9300 O   0  0  0  0  0  0  0  0  0  0  0  0
  140.1250  154.8690  133.2340 C   0  0  0  0  0  0  0  0  0  0  0  0
  138.8990  154.7000  132.9830 O   0  0  0  0  0  0  0  0  0  0  0  0
  140.5690  156.0860  133.8510 N   0  0  0  0  0  0  0  0  0  0  0  0
  141.3600  156.2260  134.9540 C   0  0  0  0  0  0  0  0  0  0  0  0
  141.8220  155.1330  135.8350 C   0  0  0  0  0  0  0  0  0  0  0  0
  142.8850  154.2830  135.4120 N   0  0  0  0  0  0  0  0  0  0  0  0
  141.3110  154.9630  136.9730 O   0  0  0  0  0  0  0  0  0  0  0  0
  141.6170  157.5730  135.2000 C   0  0  0  0  0  0  0  0  0  0  0  0
  140.9460  158.2610  134.2150 C   0  0  0  0  0  0  0  0  0  0  0  0
  140.8720  159.6280  133.9690 C   0  0  0  0  0  0  0  0  0  0  0  0
  140.1310  160.0570  132.8560 C   0  0  0  0  0  0  0  0  0  0  0  0
  139.4720  159.1210  132.0170 C   0  0  0  0  0  0  0  0  0  0  0  0
  138.7250  159.5930  130.7880 C   0  0  0  0  0  0  0  0  0  0  0  0
  137.2470  159.7910  131.1120 C   0  0  0  0  0  0  0  0  0  0  0  0
  138.8450  158.6640  129.7670 F   0  0  0  0  0  0  0  0  0  0  0  0
  139.2550  160.7910  130.3370 F   0  0  0  0  0  0  0  0  0  0  0  0
  139.5900  157.7380  132.2890 C   0  0  0  0  0  0  0  0  0  0  0  0
  140.3210  157.3400  133.4140 C   0  0  0  0  0  0  0  0  0  0  0  0
  144.3328  153.2892  133.6733 H   0  0  0  0  0  0  0  0  0  0  0  0
  144.5520  152.1092  132.3369 H   0  0  0  0  0  0  0  0  0  0  0  0
  143.1350  153.2131  132.3369 H   0  0  0  0  0  0  0  0  0  0  0  0
  140.8912  151.9753  132.1109 H   0  0  0  0  0  0  0  0  0  0  0  0
  139.7526  152.3541  133.4577 H   0  0  0  0  0  0  0  0  0  0  0  0
  142.7020  153.2950  135.1260 H   0  0  0  0  0  0  0  0  0  0  0  0
  142.2276  157.9972  136.0107 H   0  0  0  0  0  0  0  0  0  0  0  0
  141.3782  160.3506  134.6259 H   0  0  0  0  0  0  0  0  0  0  0  0
  140.0604  161.1316  132.6317 H   0  0  0  0  0  0  0  0  0  0  0  0
  137.1101  159.8093  132.2033 H   0  0  0  0  0  0  0  0  0  0  0  0
  136.9020  160.7434  130.6831 H   0  0  0  0  0  0  0  0  0  0  0  0
  136.6635  158.9630  130.6831 H   0  0  0  0  0  0  0  0  0  0  0  0
  139.1182  156.9928  131.6317 H   0  0  0  0  0  0  0  0  0  0  0  0
  1  2  1  0
  2  3  1  0
  3  4  2  0
  3  5  1  0
  5  6  1  0
  6  7  1  0
  7  8  2  0
  7  9  1  0
  9 10  1  0
 10 11  1  0
 11 12  1  0
 11 13  2  0
 10 14  2  0
 14 15  1  0
 15 16  2  0
 16 17  1  0
 17 18  2  0
 18 19  1  0
 19 20  1  0
 19 21  1  0
 19 22  1  0
 18 23  1  0
 23 24  2  0
 24  9  1  0
 24 15  1  0
  1 25  1  0
  1 26  1  0
  1 27  1  0
  5 28  1  0
  5 29  1  0
 12 30  1  0
 14 31  1  0
 16 32  1  0
 17 33  1  0
 20 34  1  0
 20 35  1  0
 20 36  1  0
 23 37  1  0
M  CHG  1  12  -1
M  END
>  <UniqueID>  (59) 
58

>  <SMILES>  (59) 
COC(=O)COC(=O)n1c(C([NH-])=O)cc2ccc(C(C)(F)F)cc21

>  <Energy>  (59) 
69.20208361518372

>  <Genealogy>  (59) 
COC(=O)COC(=O)n1c(C([NH-])=O)cc2ccc(C(C)(F)F)cc21 (protonated)
COC(=O)COC(=O)n1c(C([NH-])=O)cc2ccc(C(C)(F)F)cc21 (3D coordinates assigned)
COC(=O)COC(=O)n1c(C([NH-])=O)cc2ccc(C(C)(F)F)cc21 (optimized conformer: 69.20208361518372 kcal/mol)

>  <smiles>  (59) 
COC(=O)COC(=O)n1c(C(N)=O)cc2ccc(C(C)(F)F)cc21

>  <score_type>  (59) 
oracle

>  <origin>  (59) 
adg

>  <m_score__min__energy>  (59) 
-5.8799999999999999

>  <m_primary>  (59) 
energy

$$$$
60:0
     RDKit          3D

 37 38  0  0  0  0  0  0  0  0999 V2000
  149.9830  150.7190  130.7670 C   0  0  0  0  0  0  0  0  0  0  0  0
  150.3670  150.7750  132.1350 O   0  0  0  0  0  0  0  0  0  0  0  0
  149.5620  151.3550  133.1190 C   0  0  0  0  0  0  0  0  0  0  0  0
  149.8790  151.2770  134.3370 O   0  0  0  0  0  0  0  0  0  0  0  0
  148.3330  152.1130  132.7210 C   0  0  0  0  0  0  0  0  0  0  0  0
  148.6200  153.5520  132.6180 N   0  0  0  0  0  0  0  0  0  0  0  0
  149.9780  153.9700  132.2530 C   0  0  0  0  0  0  0  0  0  0  0  0
  147.5810  154.5440  132.8300 C   0  0  0  0  0  0  0  0  0  0  0  0
  146.2220  154.1470  132.9810 C   0  0  0  0  0  0  0  0  0  0  0  0
  145.2070  155.0970  133.1870 C   0  0  0  0  0  0  0  0  0  0  0  0
  145.5680  156.4370  133.2430 C   0  0  0  0  0  0  0  0  0  0  0  0
  144.7920  157.5600  133.4250 C   0  0  0  0  0  0  0  0  0  0  0  0
  145.6830  158.6320  133.3990 C   0  0  0  0  0  0  0  0  0  0  0  0
  145.2870  160.0350  133.6410 C   0  0  0  0  0  0  0  0  0  0  0  0
  146.2840  161.0490  133.7370 N   0  0  0  0  0  0  0  0  0  0  0  0
  144.0720  160.3530  133.7360 O   0  0  0  0  0  0  0  0  0  0  0  0
  146.9550  158.1870  133.1980 N   0  0  0  0  0  0  0  0  0  0  0  0
  148.1560  158.9640  133.0720 C   0  0  0  0  0  0  0  0  0  0  0  0
  148.8600  159.1900  134.0930 O   0  0  0  0  0  0  0  0  0  0  0  0
  148.6030  159.4560  131.7620 C   0  0  0  0  0  0  0  0  0  0  0  0
  148.0380  160.4460  131.2270 O   0  0  0  0  0  0  0  0  0  0  0  0
  149.6430  158.8180  131.0960 O   0  0  0  0  0  0  0  0  0  0  0  0
  146.8680  156.8430  133.1130 C   0  0  0  0  0  0  0  0  0  0  0  0
  147.9000  155.9250  132.8960 C   0  0  0  0  0  0  0  0  0  0  0  0
  148.8967  150.5606  130.6973 H   0  0  0  0  0  0  0  0  0  0  0  0
  150.2480  151.6653  130.2727 H   0  0  0  0  0  0  0  0  0  0  0  0
  150.5072  149.8878  130.2727 H   0  0  0  0  0  0  0  0  0  0  0  0
  147.9813  151.7443  131.7461 H   0  0  0  0  0  0  0  0  0  0  0  0
  147.5597  151.9607  133.4883 H   0  0  0  0  0  0  0  0  0  0  0  0
  150.5640  154.1504  133.1663 H   0  0  0  0  0  0  0  0  0  0  0  0
  150.4583  153.1781  131.6595 H   0  0  0  0  0  0  0  0  0  0  0  0
  149.9299  154.8949  131.6595 H   0  0  0  0  0  0  0  0  0  0  0  0
  145.9622  153.0791  132.9357 H   0  0  0  0  0  0  0  0  0  0  0  0
  144.1573  154.7883  133.3006 H   0  0  0  0  0  0  0  0  0  0  0  0
  143.7014  157.6022  133.5618 H   0  0  0  0  0  0  0  0  0  0  0  0
  146.9490  161.2230  132.9520 H   0  0  0  0  0  0  0  0  0  0  0  0
  148.9390  156.2667  132.7787 H   0  0  0  0  0  0  0  0  0  0  0  0
  1  2  1  0
  2  3  1  0
  3  4  2  0
  3  5  1  0
  5  6  1  0
  6  7  1  0
  6  8  1  0
  8  9  2  0
  9 10  1  0
 10 11  2  0
 11 12  1  0
 12 13  2  0
 13 14  1  0
 14 15  1  0
 14 16  2  0
 13 17  1  0
 17 18  1  0
 18 19  2  0
 18 20  1  0
 20 21  2  0
 20 22  1  0
 17 23  1  0
 23 24  2  0
 24  8  1  0
 23 11  1  0
  1 25  1  0
  1 26  1  0
  1 27  1  0
  5 28  1  0
  5 29  1  0
  7 30  1  0
  7 31  1  0
  7 32  1  0
  9 33  1  0
 10 34  1  0
 12 35  1  0
 15 36  1  0
 24 37  1  0
M  CHG  2  15  -1  22  -1
M  END
>  <UniqueID>  (60) 
59

>  <SMILES>  (60) 
COC(=O)CN(C)c1ccc2cc(C([NH-])=O)n(C(=O)C(=O)[O-])c2c1

>  <Energy>  (60) 
75.04214626192116

>  <Genealogy>  (60) 
COC(=O)CN(C)c1ccc2cc(C([NH-])=O)n(C(=O)C(=O)[O-])c2c1 (protonated)
COC(=O)CN(C)c1ccc2cc(C([NH-])=O)n(C(=O)C(=O)[O-])c2c1 (3D coordinates assigned)
COC(=O)CN(C)c1ccc2cc(C([NH-])=O)n(C(=O)C(=O)[O-])c2c1 (optimized conformer: 75.04214626192116 kcal/mol)

>  <smiles>  (60) 
COC(=O)CN(C)c1ccc2cc(C(N)=O)n(C(=O)C(=O)O)c2c1

>  <score_type>  (60) 
oracle

>  <origin>  (60) 
adg

>  <m_score__min__energy>  (60) 
-5.8499999999999996

>  <m_primary>  (60) 
energy

$$$$
61:0
     RDKit          3D

 43 44  0  0  0  0  0  0  0  0999 V2000
  138.7380  148.2070  130.7780 C   0  0  0  0  0  0  0  0  0  0  0  0
  139.6090  148.9080  131.2280 C   0  0  0  0  0  0  0  0  0  0  0  0
  140.6480  149.7450  131.7670 C   0  0  0  0  0  0  0  0  0  0  0  0
  141.9670  149.2470  131.8780 C   0  0  0  0  0  0  0  0  0  0  0  0
  142.9940  150.0590  132.3920 C   0  0  0  0  0  0  0  0  0  0  0  0
  142.6640  151.3520  132.7910 C   0  0  0  0  0  0  0  0  0  0  0  0
  143.4620  152.3520  133.2990 C   0  0  0  0  0  0  0  0  0  0  0  0
  142.6080  153.4330  133.5110 C   0  0  0  0  0  0  0  0  0  0  0  0
  143.0410  154.7000  134.1400 C   0  0  0  0  0  0  0  0  0  0  0  0
  142.8460  155.9480  133.4810 N   0  0  0  0  0  0  0  0  0  0  0  0
  143.5450  154.6820  135.2940 O   0  0  0  0  0  0  0  0  0  0  0  0
  141.3360  153.1180  133.1380 N   0  0  0  0  0  0  0  0  0  0  0  0
  140.1840  153.9740  133.1230 C   0  0  0  0  0  0  0  0  0  0  0  0
  139.0990  153.5610  132.6280 O   0  0  0  0  0  0  0  0  0  0  0  0
  140.2660  155.2580  133.6720 O   0  0  0  0  0  0  0  0  0  0  0  0
  139.5530  156.3680  133.1400 C   0  0  0  0  0  0  0  0  0  0  0  0
  139.7970  157.5180  133.9430 O   0  0  0  0  0  0  0  0  0  0  0  0
  140.9840  158.2560  133.8720 C   0  0  0  0  0  0  0  0  0  0  0  0
  141.5140  158.4950  132.7510 O   0  0  0  0  0  0  0  0  0  0  0  0
  141.6120  158.7630  135.1560 C   0  0  0  0  0  0  0  0  0  0  0  0
  140.6110  159.6040  135.9790 C   0  0  0  0  0  0  0  0  0  0  0  0
  142.8220  159.6470  134.7940 C   0  0  0  0  0  0  0  0  0  0  0  0
  142.0960  157.5590  135.9990 C   0  0  0  0  0  0  0  0  0  0  0  0
  141.2740  156.4430  135.7840 O   0  0  0  0  0  0  0  0  0  0  0  0
  141.3850  151.8400  132.7040 C   0  0  0  0  0  0  0  0  0  0  0  0
  140.3480  151.0590  132.1790 C   0  0  0  0  0  0  0  0  0  0  0  0
  137.9431  147.5672  130.3673 H   0  0  0  0  0  0  0  0  0  0  0  0
  142.1912  148.2180  131.5603 H   0  0  0  0  0  0  0  0  0  0  0  0
  144.0250  149.6848  132.4762 H   0  0  0  0  0  0  0  0  0  0  0  0
  144.5434  152.3075  133.4957 H   0  0  0  0  0  0  0  0  0  0  0  0
  141.9900  156.5210  133.6570 H   0  0  0  0  0  0  0  0  0  0  0  0
  139.8901  156.5612  132.1109 H   0  0  0  0  0  0  0  0  0  0  0  0
  138.4759  156.1446  133.1373 H   0  0  0  0  0  0  0  0  0  0  0  0
  140.7964  159.4482  137.0520 H   0  0  0  0  0  0  0  0  0  0  0  0
  140.7396  160.6690  135.7355 H   0  0  0  0  0  0  0  0  0  0  0  0
  139.5842  159.2936  135.7355 H   0  0  0  0  0  0  0  0  0  0  0  0
  143.3064  160.0009  135.7160 H   0  0  0  0  0  0  0  0  0  0  0  0
  143.5413  159.0602  134.2039 H   0  0  0  0  0  0  0  0  0  0  0  0
  142.4817  160.5106  134.2039 H   0  0  0  0  0  0  0  0  0  0  0  0
  143.1279  157.3084  135.7121 H   0  0  0  0  0  0  0  0  0  0  0  0
  142.0523  157.8315  137.0638 H   0  0  0  0  0  0  0  0  0  0  0  0
  141.3410  156.2320  134.8170 H   0  0  0  0  0  0  0  0  0  0  0  0
  139.3275  151.4600  132.0906 H   0  0  0  0  0  0  0  0  0  0  0  0
  1  2  3  0
  2  3  1  0
  3  4  2  0
  4  5  1  0
  5  6  2  0
  6  7  1  0
  7  8  2  0
  8  9  1  0
  9 10  1  0
  9 11  2  0
  8 12  1  0
 12 13  1  0
 13 14  2  0
 13 15  1  0
 15 16  1  0
 16 17  1  0
 17 18  1  0
 18 19  2  0
 18 20  1  0
 20 21  1  0
 20 22  1  0
 20 23  1  0
 23 24  1  0
 12 25  1  0
 25 26  2  0
 26  3  1  0
 25  6  1  0
  1 27  1  0
  4 28  1  0
  5 29  1  0
  7 30  1  0
 10 31  1  0
 16 32  1  0
 16 33  1  0
 21 34  1  0
 21 35  1  0
 21 36  1  0
 22 37  1  0
 22 38  1  0
 22 39  1  0
 23 40  1  0
 23 41  1  0
 24 42  1  0
 26 43  1  0
M  CHG  1  10  -1
M  END
>  <UniqueID>  (61) 
60

>  <SMILES>  (61) 
C#Cc1ccc2cc(C([NH-])=O)n(C(=O)OCOC(=O)C(C)(C)CO)c2c1

>  <Energy>  (61) 
73.0514994928225

>  <Genealogy>  (61) 
C#Cc1ccc2cc(C([NH-])=O)n(C(=O)OCOC(=O)C(C)(C)CO)c2c1 (protonated)
C#Cc1ccc2cc(C([NH-])=O)n(C(=O)OCOC(=O)C(C)(C)CO)c2c1 (3D coordinates assigned)
C#Cc1ccc2cc(C([NH-])=O)n(C(=O)OCOC(=O)C(C)(C)CO)c2c1 (optimized conformer: 73.0514994928225 kcal/mol)

>  <smiles>  (61) 
C#Cc1ccc2cc(C(N)=O)n(C(=O)OCOC(=O)C(C)(C)CO)c2c1

>  <score_type>  (61) 
oracle

>  <origin>  (61) 
adg

>  <m_score__min__energy>  (61) 
-6.3399999999999999

>  <m_primary>  (61) 
energy

$$$$
62:0
     RDKit          3D

 60 62  0  0  0  0  0  0  0  0999 V2000
  149.9880  160.1200  130.3900 C   0  0  0  0  0  0  0  0  0  0  0  0
  149.6550  159.6510  131.6910 O   0  0  0  0  0  0  0  0  0  0  0  0
  148.3430  159.6590  132.1850 C   0  0  0  0  0  0  0  0  0  0  0  0
  147.6870  160.7380  132.2000 O   0  0  0  0  0  0  0  0  0  0  0  0
  147.7470  158.4420  132.6740 N   0  0  0  0  0  0  0  0  0  0  0  0
  146.2930  158.3770  132.9270 C   0  0  0  0  0  0  0  0  0  0  0  0
  146.0010  157.4650  134.1180 C   0  0  0  0  0  0  0  0  0  0  0  0
  146.6960  156.1920  133.9210 N   0  0  0  0  0  0  0  0  0  0  0  0
  145.9500  154.9990  133.6210 C   0  0  0  0  0  0  0  0  0  0  0  0
  146.6110  153.8330  133.1530 C   0  0  0  0  0  0  0  0  0  0  0  0
  145.8820  152.6740  132.8330 C   0  0  0  0  0  0  0  0  0  0  0  0
  144.4970  152.7080  132.9920 C   0  0  0  0  0  0  0  0  0  0  0  0
  143.5580  151.7210  132.8090 C   0  0  0  0  0  0  0  0  0  0  0  0
  142.3470  152.2800  133.2170 C   0  0  0  0  0  0  0  0  0  0  0  0
  141.0760  151.5210  133.2510 C   0  0  0  0  0  0  0  0  0  0  0  0
  139.8870  152.0110  132.6280 N   0  0  0  0  0  0  0  0  0  0  0  0
  141.0310  150.4310  133.8810 O   0  0  0  0  0  0  0  0  0  0  0  0
  142.5300  153.5770  133.5940 N   0  0  0  0  0  0  0  0  0  0  0  0
  141.5860  154.5090  134.1410 C   0  0  0  0  0  0  0  0  0  0  0  0
  140.4610  154.6360  133.5840 O   0  0  0  0  0  0  0  0  0  0  0  0
  141.8230  155.1240  135.4200 N   0  0  0  0  0  0  0  0  0  0  0  0
  141.7760  154.2830  136.6160 C   0  0  0  0  0  0  0  0  0  0  0  0
  141.9210  156.5800  135.5530 C   0  0  0  0  0  0  0  0  0  0  0  0
  140.6320  157.2400  135.1510 C   0  0  0  0  0  0  0  0  0  0  0  0
  139.7700  157.4860  136.0360 O   0  0  0  0  0  0  0  0  0  0  0  0
  140.3760  157.6130  133.7860 N   0  0  0  0  0  0  0  0  0  0  0  0
  141.4470  158.0980  132.9110 C   0  0  0  0  0  0  0  0  0  0  0  0
  139.0110  157.5080  133.2640 C   0  0  0  0  0  0  0  0  0  0  0  0
  143.8500  153.8190  133.4630 C   0  0  0  0  0  0  0  0  0  0  0  0
  144.5460  154.9900  133.7780 C   0  0  0  0  0  0  0  0  0  0  0  0
  148.1490  156.2510  133.7530 C   0  0  0  0  0  0  0  0  0  0  0  0
  148.4970  157.1760  132.5800 C   0  0  0  0  0  0  0  0  0  0  0  0
  150.6230  161.0143  130.4740 H   0  0  0  0  0  0  0  0  0  0  0  0
  150.5316  159.3342  129.8450 H   0  0  0  0  0  0  0  0  0  0  0  0
  149.0670  160.3742  129.8450 H   0  0  0  0  0  0  0  0  0  0  0  0
  145.9170  159.3878  133.1435 H   0  0  0  0  0  0  0  0  0  0  0  0
  145.7929  157.9713  132.0352 H   0  0  0  0  0  0  0  0  0  0  0  0
  146.3570  157.9408  135.0436 H   0  0  0  0  0  0  0  0  0  0  0  0
  144.9179  157.2903  134.1973 H   0  0  0  0  0  0  0  0  0  0  0  0
  147.7051  153.8363  133.0395 H   0  0  0  0  0  0  0  0  0  0  0  0
  146.3887  151.7683  132.4684 H   0  0  0  0  0  0  0  0  0  0  0  0
  143.7261  150.7050  132.4225 H   0  0  0  0  0  0  0  0  0  0  0  0
  139.0290  151.4160  132.6160 H   0  0  0  0  0  0  0  0  0  0  0  0
  139.8130  152.9960  132.2900 H   0  0  0  0  0  0  0  0  0  0  0  0
  141.8115  154.9188  137.5129 H   0  0  0  0  0  0  0  0  0  0  0  0
  140.8438  153.6990  136.6172 H   0  0  0  0  0  0  0  0  0  0  0  0
  142.6373  153.5988  136.6172 H   0  0  0  0  0  0  0  0  0  0  0  0
  142.1443  156.8324  136.6001 H   0  0  0  0  0  0  0  0  0  0  0  0
  142.7233  156.9414  134.8929 H   0  0  0  0  0  0  0  0  0  0  0  0
  142.2790  158.4748  133.5241 H   0  0  0  0  0  0  0  0  0  0  0  0
  141.8034  157.2735  132.2761 H   0  0  0  0  0  0  0  0  0  0  0  0
  141.0624  158.9098  132.2761 H   0  0  0  0  0  0  0  0  0  0  0  0
  138.3010  157.4534  134.1024 H   0  0  0  0  0  0  0  0  0  0  0  0
  138.7847  158.3914  132.6489 H   0  0  0  0  0  0  0  0  0  0  0  0
  138.9225  156.6004  132.6489 H   0  0  0  0  0  0  0  0  0  0  0  0
  144.0136  155.8822  134.1391 H   0  0  0  0  0  0  0  0  0  0  0  0
  148.6080  156.6399  134.6739 H   0  0  0  0  0  0  0  0  0  0  0  0
  148.5330  155.2411  133.5467 H   0  0  0  0  0  0  0  0  0  0  0  0
  149.5752  157.3929  132.5988 H   0  0  0  0  0  0  0  0  0  0  0  0
  148.2251  156.6729  131.6403 H   0  0  0  0  0  0  0  0  0  0  0  0
  1  2  1  0
  2  3  1  0
  3  4  2  0
  3  5  1  0
  5  6  1  0
  6  7  1  0
  7  8  1  0
  8  9  1  0
  9 10  2  0
 10 11  1  0
 11 12  2  0
 12 13  1  0
 13 14  2  0
 14 15  1  0
 15 16  1  0
 15 17  2  0
 14 18  1  0
 18 19  1  0
 19 20  2  0
 19 21  1  0
 21 22  1  0
 21 23  1  0
 23 24  1  0
 24 25  2  0
 24 26  1  0
 26 27  1  0
 26 28  1  0
 18 29  1  0
 29 30  2  0
  8 31  1  0
 31 32  1  0
 32  5  1  0
 30  9  1  0
 29 12  1  0
  1 33  1  0
  1 34  1  0
  1 35  1  0
  6 36  1  0
  6 37  1  0
  7 38  1  0
  7 39  1  0
 10 40  1  0
 11 41  1  0
 13 42  1  0
 16 43  1  0
 16 44  1  0
 22 45  1  0
 22 46  1  0
 22 47  1  0
 23 48  1  0
 23 49  1  0
 27 50  1  0
 27 51  1  0
 27 52  1  0
 28 53  1  0
 28 54  1  0
 28 55  1  0
 30 56  1  0
 31 57  1  0
 31 58  1  0
 32 59  1  0
 32 60  1  0
M  END
>  <UniqueID>  (62) 
61

>  <SMILES>  (62) 
COC(=O)N1CCN(c2ccc3cc(C(N)=O)n(C(=O)N(C)CC(=O)N(C)C)c3c2)CC1

>  <Energy>  (62) 
108.20139936938402

>  <Genealogy>  (62) 
COC(=O)N1CCN(c2ccc3cc(C(N)=O)n(C(=O)N(C)CC(=O)N(C)C)c3c2)CC1 (3D coordinates assigned)
COC(=O)N1CCN(c2ccc3cc(C(N)=O)n(C(=O)N(C)CC(=O)N(C)C)c3c2)CC1 (nonaromatic ring conformer: 108.20139936938402 kcal/mol)

>  <smiles>  (62) 
COC(=O)N1CCN(c2ccc3cc(C(N)=O)n(C(=O)N(C)CC(=O)N(C)C)c3c2)CC1

>  <score_type>  (62) 
oracle

>  <origin>  (62) 
adg

>  <m_score__min__energy>  (62) 
-8.4499999999999993

>  <m_primary>  (62) 
energy

$$$$
63:0
     RDKit          3D

 37 39  0  0  0  0  0  0  0  0999 V2000
  149.5770  157.2110  132.2350 C   0  0  0  0  0  0  0  0  0  0  0  0
  149.0980  158.5870  131.8980 C   0  0  0  0  0  0  0  0  0  0  0  0
  149.8550  159.4850  131.2350 N   0  0  0  0  0  0  0  0  0  0  0  0
  149.1270  160.5790  131.0780 N   0  0  0  0  0  0  0  0  0  0  0  0
  149.5770  161.7530  130.3440 C   0  0  0  0  0  0  0  0  0  0  0  0
  147.9030  160.4040  131.6080 C   0  0  0  0  0  0  0  0  0  0  0  0
  147.8500  159.1410  132.1670 C   0  0  0  0  0  0  0  0  0  0  0  0
  146.6860  158.5340  132.8510 C   0  0  0  0  0  0  0  0  0  0  0  0
  145.4440  159.2150  132.9140 C   0  0  0  0  0  0  0  0  0  0  0  0
  144.3340  158.6290  133.5460 C   0  0  0  0  0  0  0  0  0  0  0  0
  144.4930  157.3650  134.1070 C   0  0  0  0  0  0  0  0  0  0  0  0
  143.5810  156.5560  134.7450 C   0  0  0  0  0  0  0  0  0  0  0  0
  144.2810  155.3940  135.0710 C   0  0  0  0  0  0  0  0  0  0  0  0
  143.7050  154.2480  135.8140 C   0  0  0  0  0  0  0  0  0  0  0  0
  144.3300  153.7520  136.9990 N   0  0  0  0  0  0  0  0  0  0  0  0
  142.6580  153.6870  135.3950 O   0  0  0  0  0  0  0  0  0  0  0  0
  145.5750  155.4890  134.6570 N   0  0  0  0  0  0  0  0  0  0  0  0
  146.5950  154.4810  134.7480 C   0  0  0  0  0  0  0  0  0  0  0  0
  146.9380  153.8470  133.7160 O   0  0  0  0  0  0  0  0  0  0  0  0
  147.2340  154.1680  136.0350 C   0  0  0  0  0  0  0  0  0  0  0  0
  148.1270  154.9220  136.5040 O   0  0  0  0  0  0  0  0  0  0  0  0
  146.8430  153.0440  136.7500 O   0  0  0  0  0  0  0  0  0  0  0  0
  145.6880  156.6960  134.0620 C   0  0  0  0  0  0  0  0  0  0  0  0
  146.8030  157.2450  133.4210 C   0  0  0  0  0  0  0  0  0  0  0  0
  149.6176  157.0943  133.3280 H   0  0  0  0  0  0  0  0  0  0  0  0
  148.8846  156.4680  131.8124 H   0  0  0  0  0  0  0  0  0  0  0  0
  150.5811  157.0585  131.8124 H   0  0  0  0  0  0  0  0  0  0  0  0
  149.8775  162.5369  131.0548 H   0  0  0  0  0  0  0  0  0  0  0  0
  150.4354  161.4831  129.7113 H   0  0  0  0  0  0  0  0  0  0  0  0
  148.7581  162.1260  129.7113 H   0  0  0  0  0  0  0  0  0  0  0  0
  147.0851  161.1395  131.5982 H   0  0  0  0  0  0  0  0  0  0  0  0
  145.3482  160.2137  132.4629 H   0  0  0  0  0  0  0  0  0  0  0  0
  143.3684  159.1535  133.5959 H   0  0  0  0  0  0  0  0  0  0  0  0
  142.5241  156.7783  134.9537 H   0  0  0  0  0  0  0  0  0  0  0  0
  143.9320  152.9210  137.4910 H   0  0  0  0  0  0  0  0  0  0  0  0
  145.1590  154.2260  137.4200 H   0  0  0  0  0  0  0  0  0  0  0  0
  147.7492  156.6872  133.3615 H   0  0  0  0  0  0  0  0  0  0  0  0
  1  2  1  0
  2  3  2  0
  3  4  1  0
  4  5  1  0
  4  6  1  0
  6  7  2  0
  7  8  1  0
  8  9  2  0
  9 10  1  0
 10 11  2  0
 11 12  1  0
 12 13  2  0
 13 14  1  0
 14 15  1  0
 14 16  2  0
 13 17  1  0
 17 18  1  0
 18 19  2  0
 18 20  1  0
 20 21  2  0
 20 22  1  0
 17 23  1  0
 23 24  2  0
  7  2  1  0
 24  8  1  0
 23 11  1  0
  1 25  1  0
  1 26  1  0
  1 27  1  0
  5 28  1  0
  5 29  1  0
  5 30  1  0
  6 31  1  0
  9 32  1  0
 10 33  1  0
 12 34  1  0
 15 35  1  0
 15 36  1  0
 24 37  1  0
M  CHG  1  22  -1
M  END
>  <UniqueID>  (63) 
62

>  <SMILES>  (63) 
Cc1nn(C)cc1-c1ccc2cc(C(N)=O)n(C(=O)C(=O)[O-])c2c1

>  <Energy>  (63) 
110.41902634725096

>  <Genealogy>  (63) 
Cc1nn(C)cc1-c1ccc2cc(C(N)=O)n(C(=O)C(=O)[O-])c2c1 (protonated)
Cc1nn(C)cc1-c1ccc2cc(C(N)=O)n(C(=O)C(=O)[O-])c2c1 (3D coordinates assigned)
Cc1nn(C)cc1-c1ccc2cc(C(N)=O)n(C(=O)C(=O)[O-])c2c1 (optimized conformer: 110.41902634725096 kcal/mol)

>  <smiles>  (63) 
Cc1nn(C)cc1-c1ccc2cc(C(N)=O)n(C(=O)C(=O)O)c2c1

>  <score_type>  (63) 
oracle

>  <origin>  (63) 
adg

>  <m_score__min__energy>  (63) 
-7.5300000000000002

>  <m_primary>  (63) 
energy

$$$$
64:0
     RDKit          3D

 50 54  0  0  0  0  0  0  0  0999 V2000
  143.8620  163.2410  133.3610 N   0  0  0  0  0  0  0  0  0  0  0  0
  144.7000  162.3950  134.1430 C   0  0  0  0  0  0  0  0  0  0  0  0
  145.4930  162.9110  134.9760 O   0  0  0  0  0  0  0  0  0  0  0  0
  144.6930  160.9290  133.9520 C   0  0  0  0  0  0  0  0  0  0  0  0
  145.8490  160.1770  133.7480 C   0  0  0  0  0  0  0  0  0  0  0  0
  145.4130  158.8920  133.5230 C   0  0  0  0  0  0  0  0  0  0  0  0
  146.1390  157.7320  133.2720 C   0  0  0  0  0  0  0  0  0  0  0  0
  145.4280  156.5330  133.1060 C   0  0  0  0  0  0  0  0  0  0  0  0
  144.0100  156.5070  133.2010 C   0  0  0  0  0  0  0  0  0  0  0  0
  143.2690  155.2320  133.0340 C   0  0  0  0  0  0  0  0  0  0  0  0
  141.9610  155.0910  133.5190 C   0  0  0  0  0  0  0  0  0  0  0  0
  141.2760  153.8890  133.3580 C   0  0  0  0  0  0  0  0  0  0  0  0
  141.8990  152.8080  132.7080 C   0  0  0  0  0  0  0  0  0  0  0  0
  141.2020  151.5510  132.5330 N   0  0  0  0  0  0  0  0  0  0  0  0
  139.7790  151.4530  132.2390 C   0  0  0  0  0  0  0  0  0  0  0  0
  139.4620  149.9680  132.1350 C   0  0  1  0  0  0  0  0  0  0  0  0
  140.1350  149.2140  130.9970 C   0  0  0  0  0  0  0  0  0  0  0  0
  140.7540  149.2120  132.3870 C   0  0  1  0  0  0  0  0  0  0  0  0
  141.8390  150.2470  132.6420 C   0  0  0  0  0  0  0  0  0  0  0  0
  143.1770  152.9650  132.2440 N   0  0  0  0  0  0  0  0  0  0  0  0
  143.8610  154.1320  132.3910 C   0  0  0  0  0  0  0  0  0  0  0  0
  143.3110  157.7110  133.4580 C   0  0  0  0  0  0  0  0  0  0  0  0
  144.0450  158.8940  133.6000 C   0  0  0  0  0  0  0  0  0  0  0  0
  143.5870  160.1360  133.8680 N   0  0  0  0  0  0  0  0  0  0  0  0
  142.2180  160.5060  134.0910 C   0  0  0  0  0  0  0  0  0  0  0  0
  141.8030  161.6380  133.7200 O   0  0  0  0  0  0  0  0  0  0  0  0
  141.3580  159.6160  134.7450 O   0  0  0  0  0  0  0  0  0  0  0  0
  140.2170  159.0300  134.1230 C   0  0  0  0  0  0  0  0  0  0  0  0
  139.8330  157.7670  134.8270 C   0  0  0  0  0  0  0  0  0  0  0  0
  139.8250  157.7190  136.0850 O   0  0  0  0  0  0  0  0  0  0  0  0
  139.4550  156.6520  134.0920 O   0  0  0  0  0  0  0  0  0  0  0  0
  142.9000  163.4890  133.6800 H   0  0  0  0  0  0  0  0  0  0  0  0
  146.8889  160.5352  133.7637 H   0  0  0  0  0  0  0  0  0  0  0  0
  147.2368  157.7537  133.2057 H   0  0  0  0  0  0  0  0  0  0  0  0
  145.9754  155.6014  132.8997 H   0  0  0  0  0  0  0  0  0  0  0  0
  141.4731  155.9344  134.0295 H   0  0  0  0  0  0  0  0  0  0  0  0
  140.2492  153.7851  133.7386 H   0  0  0  0  0  0  0  0  0  0  0  0
  139.1911  151.9116  133.0478 H   0  0  0  0  0  0  0  0  0  0  0  0
  139.5275  151.9803  131.3069 H   0  0  0  0  0  0  0  0  0  0  0  0
  138.4212  149.9803  132.4908 H   0  0  0  0  0  0  0  0  0  0  0  0
  139.6768  148.2974  130.5971 H   0  0  0  0  0  0  0  0  0  0  0  0
  140.4862  149.4776  129.9884 H   0  0  0  0  0  0  0  0  0  0  0  0
  141.1314  148.3945  133.0189 H   0  0  0  0  0  0  0  0  0  0  0  0
  142.2618  150.1138  133.6487 H   0  0  0  0  0  0  0  0  0  0  0  0
  142.6623  150.1455  131.9196 H   0  0  0  0  0  0  0  0  0  0  0  0
  143.6670  152.1810  131.7610 H   0  0  0  0  0  0  0  0  0  0  0  0
  144.8869  154.2150  132.0029 H   0  0  0  0  0  0  0  0  0  0  0  0
  142.2144  157.7165  133.5442 H   0  0  0  0  0  0  0  0  0  0  0  0
  139.3768  159.7387  134.1650 H   0  0  0  0  0  0  0  0  0  0  0  0
  140.4608  158.7961  133.0762 H   0  0  0  0  0  0  0  0  0  0  0  0
  1  2  1  0
  2  3  2  0
  2  4  1  0
  4  5  2  0
  5  6  1  0
  6  7  2  0
  7  8  1  0
  8  9  2  0
  9 10  1  0
 10 11  2  0
 11 12  1  0
 12 13  2  0
 13 14  1  0
 14 15  1  0
 15 16  1  0
 16 17  1  0
 17 18  1  0
 18 19  1  0
 13 20  1  0
 20 21  2  0
  9 22  1  0
 22 23  2  0
 23 24  1  0
 24 25  1  0
 25 26  2  0
 25 27  1  0
 27 28  1  0
 28 29  1  0
 29 30  2  0
 29 31  1  0
 24  4  1  0
 23  6  1  0
 21 10  1  0
 19 14  1  0
 18 16  1  0
  1 32  1  0
  5 33  1  0
  7 34  1  0
  8 35  1  0
 11 36  1  0
 12 37  1  0
 15 38  1  0
 15 39  1  0
 16 40  1  1
 17 41  1  0
 17 42  1  0
 18 43  1  1
 19 44  1  0
 19 45  1  0
 20 46  1  0
 21 47  1  0
 22 48  1  0
 28 49  1  0
 28 50  1  0
M  CHG  3   1  -1  20   1  31  -1
M  END
>  <UniqueID>  (64) 
63

>  <SMILES>  (64) 
[NH-]C(=O)c1cc2ccc(-c3ccc(N4C[C@H]5C[C@H]5C4)[nH+]c3)cc2n1C(=O)OCC(=O)[O-]

>  <Energy>  (64) 
363.22120594080263

>  <Genealogy>  (64) 
[NH-]C(=O)c1cc2ccc(-c3ccc(N4CC5CC5C4)[nH+]c3)cc2n1C(=O)OCC(=O)[O-] (protonated)
[NH-]C(=O)c1cc2ccc(-c3ccc(N4C[C@H]5C[C@H]5C4)[nH+]c3)cc2n1C(=O)OCC(=O)[O-] (chirality)
[NH-]C(=O)c1cc2ccc(-c3ccc(N4C[C@H]5C[C@H]5C4)[nH+]c3)cc2n1C(=O)OCC(=O)[O-] (3D coordinates assigned)
[NH-]C(=O)c1cc2ccc(-c3ccc(N4C[C@H]5C[C@H]5C4)[nH+]c3)cc2n1C(=O)OCC(=O)[O-] (nonaromatic ring conformer: 363.22120594080263 kcal/mol)

>  <smiles>  (64) 
NC(=O)c1cc2ccc(-c3ccc(N4CC5CC5C4)nc3)cc2n1C(=O)OCC(=O)O

>  <score_type>  (64) 
oracle

>  <origin>  (64) 
adg

>  <m_score__min__energy>  (64) 
-8.6300000000000008

>  <m_primary>  (64) 
energy

$$$$
65:0
     RDKit          3D

 37 38  0  0  0  0  0  0  0  0999 V2000
  147.3930  157.9280  133.9020 C   0  0  0  0  0  0  0  0  0  0  0  0
  146.9880  159.2300  133.2150 C   0  0  0  0  0  0  0  0  0  0  0  0
  147.2540  159.1280  131.8590 F   0  0  0  0  0  0  0  0  0  0  0  0
  147.7530  160.2680  133.7210 F   0  0  0  0  0  0  0  0  0  0  0  0
  145.5190  159.5070  133.4410 C   0  0  0  0  0  0  0  0  0  0  0  0
  145.0600  160.8380  133.6220 C   0  0  0  0  0  0  0  0  0  0  0  0
  143.6910  161.1130  133.7820 C   0  0  0  0  0  0  0  0  0  0  0  0
  142.8040  160.0410  133.7490 C   0  0  0  0  0  0  0  0  0  0  0  0
  141.4300  160.0250  133.8490 C   0  0  0  0  0  0  0  0  0  0  0  0
  141.0680  158.6840  133.7260 C   0  0  0  0  0  0  0  0  0  0  0  0
  139.6770  158.1980  133.8380 C   0  0  0  0  0  0  0  0  0  0  0  0
  138.8230  158.2200  132.6970 N   0  0  0  0  0  0  0  0  0  0  0  0
  139.2260  157.7870  134.9390 O   0  0  0  0  0  0  0  0  0  0  0  0
  142.1730  157.9060  133.5570 N   0  0  0  0  0  0  0  0  0  0  0  0
  142.2250  156.4870  133.3320 C   0  0  0  0  0  0  0  0  0  0  0  0
  143.1360  156.0120  132.6010 O   0  0  0  0  0  0  0  0  0  0  0  0
  141.2820  155.6020  133.9720 N   0  0  0  0  0  0  0  0  0  0  0  0
  141.3840  155.3690  135.4190 C   0  0  0  0  0  0  0  0  0  0  0  0
  142.5550  154.4890  135.7190 C   0  0  0  0  0  0  0  0  0  0  0  0
  142.3760  153.2840  136.0400 O   0  0  0  0  0  0  0  0  0  0  0  0
  143.8420  155.0100  135.6930 O   0  0  0  0  0  0  0  0  0  0  0  0
  140.3170  154.8640  133.1940 C   0  0  0  0  0  0  0  0  0  0  0  0
  139.0020  155.3800  132.9860 N   0  0  0  0  0  0  0  0  0  0  0  0
  140.6330  153.7630  132.6690 O   0  0  0  0  0  0  0  0  0  0  0  0
  143.2270  158.7510  133.5710 C   0  0  0  0  0  0  0  0  0  0  0  0
  144.5810  158.4500  133.3910 C   0  0  0  0  0  0  0  0  0  0  0  0
  147.3517  158.0609  134.9932 H   0  0  0  0  0  0  0  0  0  0  0  0
  146.7020  157.1258  133.6039 H   0  0  0  0  0  0  0  0  0  0  0  0
  148.4172  157.6593  133.6039 H   0  0  0  0  0  0  0  0  0  0  0  0
  145.7852  161.6649  133.6372 H   0  0  0  0  0  0  0  0  0  0  0  0
  143.3321  162.1424  133.9286 H   0  0  0  0  0  0  0  0  0  0  0  0
  140.7613  160.8862  133.9948 H   0  0  0  0  0  0  0  0  0  0  0  0
  138.3180  157.3600  132.3870 H   0  0  0  0  0  0  0  0  0  0  0  0
  141.5122  156.3325  135.9340 H   0  0  0  0  0  0  0  0  0  0  0  0
  140.4652  154.8755  135.7688 H   0  0  0  0  0  0  0  0  0  0  0  0
  138.6670  156.2220  133.5020 H   0  0  0  0  0  0  0  0  0  0  0  0
  144.9086  157.4148  133.2146 H   0  0  0  0  0  0  0  0  0  0  0  0
  1  2  1  0
  2  3  1  0
  2  4  1  0
  2  5  1  0
  5  6  2  0
  6  7  1  0
  7  8  2  0
  8  9  1  0
  9 10  2  0
 10 11  1  0
 11 12  1  0
 11 13  2  0
 10 14  1  0
 14 15  1  0
 15 16  2  0
 15 17  1  0
 17 18  1  0
 18 19  1  0
 19 20  2  0
 19 21  1  0
 17 22  1  0
 22 23  1  0
 22 24  2  0
 14 25  1  0
 25 26  2  0
 26  5  1  0
 25  8  1  0
  1 27  1  0
  1 28  1  0
  1 29  1  0
  6 30  1  0
  7 31  1  0
  9 32  1  0
 12 33  1  0
 18 34  1  0
 18 35  1  0
 23 36  1  0
 26 37  1  0
M  CHG  3  12  -1  21  -1  23  -1
M  END
>  <UniqueID>  (65) 
64

>  <SMILES>  (65) 
CC(F)(F)c1ccc2cc(C([NH-])=O)n(C(=O)N(CC(=O)[O-])C([NH-])=O)c2c1

>  <Energy>  (65) 
74.5559027071979

>  <Genealogy>  (65) 
CC(F)(F)c1ccc2cc(C([NH-])=O)n(C(=O)N(CC(=O)[O-])C([NH-])=O)c2c1 (protonated)
CC(F)(F)c1ccc2cc(C([NH-])=O)n(C(=O)N(CC(=O)[O-])C([NH-])=O)c2c1 (3D coordinates assigned)
CC(F)(F)c1ccc2cc(C([NH-])=O)n(C(=O)N(CC(=O)[O-])C([NH-])=O)c2c1 (optimized conformer: 74.5559027071979 kcal/mol)

>  <smiles>  (65) 
CC(F)(F)c1ccc2cc(C(N)=O)n(C(=O)N(CC(=O)O)C(N)=O)c2c1

>  <score_type>  (65) 
oracle

>  <origin>  (65) 
adg

>  <m_score__min__energy>  (65) 
-6.3099999999999996

>  <m_primary>  (65) 
energy

$$$$
66:0
     RDKit          3D

 45 46  0  0  0  0  0  0  0  0999 V2000
  145.4050  159.8470  133.6000 C   0  0  0  0  0  0  0  0  0  0  0  0
  146.4510  158.8150  133.3030 C   0  0  0  0  0  0  0  0  0  0  0  0
  147.7570  159.2150  132.9240 C   0  0  0  0  0  0  0  0  0  0  0  0
  148.7530  158.2580  132.6670 C   0  0  0  0  0  0  0  0  0  0  0  0
  148.4200  156.9150  132.8160 C   0  0  0  0  0  0  0  0  0  0  0  0
  149.1780  155.7840  132.6090 C   0  0  0  0  0  0  0  0  0  0  0  0
  148.3330  154.7120  132.8990 C   0  0  0  0  0  0  0  0  0  0  0  0
  148.7410  153.2890  132.8610 C   0  0  0  0  0  0  0  0  0  0  0  0
  148.4860  152.4220  133.9670 N   0  0  0  0  0  0  0  0  0  0  0  0
  149.3070  152.8210  131.8370 O   0  0  0  0  0  0  0  0  0  0  0  0
  147.1060  155.1670  133.2790 N   0  0  0  0  0  0  0  0  0  0  0  0
  145.9460  154.3820  133.5970 C   0  0  0  0  0  0  0  0  0  0  0  0
  145.1780  154.0180  132.6660 O   0  0  0  0  0  0  0  0  0  0  0  0
  145.6770  153.9820  134.9980 C   0  0  0  0  0  0  0  0  0  0  0  0
  144.4820  153.8490  135.3700 O   0  0  0  0  0  0  0  0  0  0  0  0
  146.7160  153.7400  135.9570 N   0  0  0  0  0  0  0  0  0  0  0  0
  147.7740  154.6730  136.3330 C   0  0  0  0  0  0  0  0  0  0  0  0
  148.4100  154.2390  137.6560 C   0  0  0  0  0  0  0  0  0  0  0  0
  149.3400  153.0150  137.5010 C   0  0  0  0  0  0  0  0  0  0  0  0
  148.6460  151.8820  136.8500 N   0  0  0  0  0  0  0  0  0  0  0  0
  147.9000  151.1060  137.8560 C   0  0  0  0  0  0  0  0  0  0  0  0
  149.6030  150.9980  136.1620 C   0  0  0  0  0  0  0  0  0  0  0  0
  147.1720  156.5140  133.2150 C   0  0  0  0  0  0  0  0  0  0  0  0
  146.1550  157.4440  133.4590 C   0  0  0  0  0  0  0  0  0  0  0  0
  145.2954  159.9551  134.6892 H   0  0  0  0  0  0  0  0  0  0  0  0
  145.7068  160.8109  133.1644 H   0  0  0  0  0  0  0  0  0  0  0  0
  144.4452  159.5322  133.1644 H   0  0  0  0  0  0  0  0  0  0  0  0
  147.9930  160.2853  132.8302 H   0  0  0  0  0  0  0  0  0  0  0  0
  149.7643  158.5608  132.3577 H   0  0  0  0  0  0  0  0  0  0  0  0
  150.2277  155.7358  132.2838 H   0  0  0  0  0  0  0  0  0  0  0  0
  148.0810  152.7790  134.8600 H   0  0  0  0  0  0  0  0  0  0  0  0
  148.7470  151.4120  133.9110 H   0  0  0  0  0  0  0  0  0  0  0  0
  148.5431  154.6875  135.5467 H   0  0  0  0  0  0  0  0  0  0  0  0
  147.3431  155.6780  136.4524 H   0  0  0  0  0  0  0  0  0  0  0  0
  148.9979  155.0786  138.0553 H   0  0  0  0  0  0  0  0  0  0  0  0
  147.5949  153.9512  138.3362 H   0  0  0  0  0  0  0  0  0  0  0  0
  150.2077  153.3014  136.8886 H   0  0  0  0  0  0  0  0  0  0  0  0
  149.6559  152.6939  138.5046 H   0  0  0  0  0  0  0  0  0  0  0  0
  148.2051  151.4234  138.8641 H   0  0  0  0  0  0  0  0  0  0  0  0
  146.8215  151.2801  137.7275 H   0  0  0  0  0  0  0  0  0  0  0  0
  148.1164  150.0352  137.7275 H   0  0  0  0  0  0  0  0  0  0  0  0
  150.1969  150.4494  136.9078 H   0  0  0  0  0  0  0  0  0  0  0  0
  149.0539  150.2826  135.5322 H   0  0  0  0  0  0  0  0  0  0  0  0
  150.2727  151.6021  135.5322 H   0  0  0  0  0  0  0  0  0  0  0  0
  145.1509  157.1148  133.7645 H   0  0  0  0  0  0  0  0  0  0  0  0
  1  2  1  0
  2  3  2  0
  3  4  1  0
  4  5  2  0
  5  6  1  0
  6  7  2  0
  7  8  1  0
  8  9  1  0
  8 10  2  0
  7 11  1  0
 11 12  1  0
 12 13  2  0
 12 14  1  0
 14 15  2  0
 14 16  1  0
 16 17  1  0
 17 18  1  0
 18 19  1  0
 19 20  1  0
 20 21  1  0
 20 22  1  0
 11 23  1  0
 23 24  2  0
 24  2  1  0
 23  5  1  0
  1 25  1  0
  1 26  1  0
  1 27  1  0
  3 28  1  0
  4 29  1  0
  6 30  1  0
  9 31  1  0
  9 32  1  0
 17 33  1  0
 17 34  1  0
 18 35  1  0
 18 36  1  0
 19 37  1  0
 19 38  1  0
 21 39  1  0
 21 40  1  0
 21 41  1  0
 22 42  1  0
 22 43  1  0
 22 44  1  0
 24 45  1  0
M  CHG  1  16  -1
M  END
>  <UniqueID>  (66) 
65

>  <SMILES>  (66) 
Cc1ccc2cc(C(N)=O)n(C(=O)C(=O)[N-]CCCN(C)C)c2c1

>  <Energy>  (66) 
82.87132799485978

>  <Genealogy>  (66) 
Cc1ccc2cc(C(N)=O)n(C(=O)C(=O)[N-]CCCN(C)C)c2c1 (protonated)
Cc1ccc2cc(C(N)=O)n(C(=O)C(=O)[N-]CCCN(C)C)c2c1 (3D coordinates assigned)
Cc1ccc2cc(C(N)=O)n(C(=O)C(=O)[N-]CCCN(C)C)c2c1 (optimized conformer: 82.87132799485978 kcal/mol)

>  <smiles>  (66) 
Cc1ccc2cc(C(N)=O)n(C(=O)C(=O)NCCCN(C)C)c2c1

>  <score_type>  (66) 
oracle

>  <origin>  (66) 
adg

>  <m_score__min__energy>  (66) 
-7.2400000000000002

>  <m_primary>  (66) 
energy

$$$$
67:0
     RDKit          3D

 39 41  0  0  0  0  0  0  0  0999 V2000
  147.7320  155.0870  135.1260 C   0  0  0  0  0  0  0  0  0  0  0  0
  146.3260  154.6740  135.0980 N   0  0  0  0  0  0  0  0  0  0  0  0
  145.8310  153.7630  136.0990 C   0  0  0  0  0  0  0  0  0  0  0  0
  146.6250  153.0210  136.7350 O   0  0  0  0  0  0  0  0  0  0  0  0
  144.4690  153.6720  136.3630 O   0  0  0  0  0  0  0  0  0  0  0  0
  145.5080  155.0380  133.9710 C   0  0  0  0  0  0  0  0  0  0  0  0
  145.3800  154.2350  133.0060 O   0  0  0  0  0  0  0  0  0  0  0  0
  144.8490  156.3150  133.9160 N   0  0  0  0  0  0  0  0  0  0  0  0
  143.5090  156.5540  133.8760 C   0  0  0  0  0  0  0  0  0  0  0  0
  142.4460  155.5430  134.0480 C   0  0  0  0  0  0  0  0  0  0  0  0
  142.7570  154.1580  134.2110 N   0  0  0  0  0  0  0  0  0  0  0  0
  141.2430  155.9140  134.1010 O   0  0  0  0  0  0  0  0  0  0  0  0
  143.2580  157.9080  133.6680 C   0  0  0  0  0  0  0  0  0  0  0  0
  144.4980  158.4990  133.5880 C   0  0  0  0  0  0  0  0  0  0  0  0
  144.8440  159.8280  133.3550 C   0  0  0  0  0  0  0  0  0  0  0  0
  146.2100  160.1470  133.2670 C   0  0  0  0  0  0  0  0  0  0  0  0
  147.1960  159.1410  133.4110 C   0  0  0  0  0  0  0  0  0  0  0  0
  148.6520  159.4810  133.2560 C   0  0  0  0  0  0  0  0  0  0  0  0
  148.9390  159.8080  131.8630 N   0  0  0  0  0  0  0  0  0  0  0  0
  148.8330  161.0120  131.2780 C   0  0  0  0  0  0  0  0  0  0  0  0
  149.2850  160.8910  129.9830 C   0  0  0  0  0  0  0  0  0  0  0  0
  149.6850  159.6210  129.7590 N   0  0  0  0  0  0  0  0  0  0  0  0
  149.4650  158.9900  130.9310 C   0  0  0  0  0  0  0  0  0  0  0  0
  146.8070  157.8010  133.6280 C   0  0  0  0  0  0  0  0  0  0  0  0
  145.4420  157.5160  133.7350 C   0  0  0  0  0  0  0  0  0  0  0  0
  148.0647  155.1847  136.1699 H   0  0  0  0  0  0  0  0  0  0  0  0
  148.3464  154.3314  134.6146 H   0  0  0  0  0  0  0  0  0  0  0  0
  147.8401  156.0549  134.6146 H   0  0  0  0  0  0  0  0  0  0  0  0
  141.9880  153.4550  134.2790 H   0  0  0  0  0  0  0  0  0  0  0  0
  143.7390  153.8370  134.3580 H   0  0  0  0  0  0  0  0  0  0  0  0
  142.2776  158.4000  133.5853 H   0  0  0  0  0  0  0  0  0  0  0  0
  144.0721  160.6037  133.2433 H   0  0  0  0  0  0  0  0  0  0  0  0
  146.5159  161.1877  133.0846 H   0  0  0  0  0  0  0  0  0  0  0  0
  148.8945  160.3457  133.8913 H   0  0  0  0  0  0  0  0  0  0  0  0
  149.2606  158.6160  133.5582 H   0  0  0  0  0  0  0  0  0  0  0  0
  148.4530  161.9306  131.7490 H   0  0  0  0  0  0  0  0  0  0  0  0
  149.3156  161.7049  129.2437 H   0  0  0  0  0  0  0  0  0  0  0  0
  149.6898  157.9275  131.1058 H   0  0  0  0  0  0  0  0  0  0  0  0
  147.5583  157.0018  133.7108 H   0  0  0  0  0  0  0  0  0  0  0  0
  1  2  1  0
  2  3  1  0
  3  4  2  0
  3  5  1  0
  2  6  1  0
  6  7  2  0
  6  8  1  0
  8  9  1  0
  9 10  1  0
 10 11  1  0
 10 12  2  0
  9 13  2  0
 13 14  1  0
 14 15  2  0
 15 16  1  0
 16 17  2  0
 17 18  1  0
 18 19  1  0
 19 20  1  0
 20 21  2  0
 21 22  1  0
 22 23  2  0
 17 24  1  0
 24 25  2  0
 25  8  1  0
 25 14  1  0
 23 19  1  0
  1 26  1  0
  1 27  1  0
  1 28  1  0
 11 29  1  0
 11 30  1  0
 13 31  1  0
 15 32  1  0
 16 33  1  0
 18 34  1  0
 18 35  1  0
 20 36  1  0
 21 37  1  0
 23 38  1  0
 24 39  1  0
M  CHG  1   5  -1
M  END
>  <UniqueID>  (67) 
66

>  <SMILES>  (67) 
CN(C(=O)[O-])C(=O)n1c(C(N)=O)cc2ccc(Cn3ccnc3)cc21

>  <Energy>  (67) 
109.66447980528041

>  <Genealogy>  (67) 
CN(C(=O)[O-])C(=O)n1c(C(N)=O)cc2ccc(Cn3ccnc3)cc21 (protonated)
CN(C(=O)[O-])C(=O)n1c(C(N)=O)cc2ccc(Cn3ccnc3)cc21 (3D coordinates assigned)
CN(C(=O)[O-])C(=O)n1c(C(N)=O)cc2ccc(Cn3ccnc3)cc21 (optimized conformer: 109.66447980528041 kcal/mol)

>  <smiles>  (67) 
CN(C(=O)O)C(=O)n1c(C(N)=O)cc2ccc(Cn3ccnc3)cc21

>  <score_type>  (67) 
oracle

>  <origin>  (67) 
adg

>  <m_score__min__energy>  (67) 
-7.1799999999999997

>  <m_primary>  (67) 
energy

$$$$
68:0
     RDKit          3D

 46 47  0  0  0  0  0  0  0  0999 V2000
  149.5910  161.6690  130.0370 C   0  0  0  0  0  0  0  0  0  0  0  0
  148.5460  161.3980  131.0170 N   0  0  0  0  0  0  0  0  0  0  0  0
  148.4080  160.1440  131.7080 C   0  0  0  0  0  0  0  0  0  0  0  0
  149.5050  159.2510  131.8550 C   0  0  0  0  0  0  0  0  0  0  0  0
  149.3520  158.0360  132.5450 C   0  0  0  0  0  0  0  0  0  0  0  0
  148.0980  157.7360  133.0690 C   0  0  0  0  0  0  0  0  0  0  0  0
  147.6790  156.6490  133.8000 C   0  0  0  0  0  0  0  0  0  0  0  0
  146.3280  156.8780  134.0600 C   0  0  0  0  0  0  0  0  0  0  0  0
  145.4580  155.9140  134.7590 C   0  0  0  0  0  0  0  0  0  0  0  0
  144.1550  156.2820  135.1940 N   0  0  0  0  0  0  0  0  0  0  0  0
  145.8610  154.7360  134.9460 O   0  0  0  0  0  0  0  0  0  0  0  0
  145.9330  158.0620  133.5170 N   0  0  0  0  0  0  0  0  0  0  0  0
  144.6340  158.6660  133.5580 C   0  0  0  0  0  0  0  0  0  0  0  0
  144.3440  159.4750  134.4810 O   0  0  0  0  0  0  0  0  0  0  0  0
  143.6970  158.3540  132.5690 O   0  0  0  0  0  0  0  0  0  0  0  0
  142.9040  157.1720  132.6070 C   0  0  0  0  0  0  0  0  0  0  0  0
  141.5360  157.5060  132.6160 O   0  0  0  0  0  0  0  0  0  0  0  0
  140.9470  157.4010  134.2160 P   0  0  1  0  0  0  0  0  0  0  0  0
  141.6380  156.2680  134.9400 O   0  0  0  0  0  0  0  0  0  0  0  0
  141.3470  158.9590  135.0590 C   0  0  0  0  0  0  0  0  0  0  0  0
  142.4790  158.7660  135.8620 O   0  0  0  0  0  0  0  0  0  0  0  0
  139.2490  157.1880  134.1890 O   0  0  0  0  0  0  0  0  0  0  0  0
  138.7560  157.4820  132.9050 C   0  0  0  0  0  0  0  0  0  0  0  0
  138.0310  158.6880  132.9440 O   0  0  0  0  0  0  0  0  0  0  0  0
  138.2950  159.5230  131.4850 P   0  0  0  0  0  0  0  0  0  0  0  0
  136.9790  159.9410  130.8800 O   0  0  0  0  0  0  0  0  0  0  0  0
  139.0900  158.5020  130.4040 O   0  0  0  0  0  0  0  0  0  0  0  0
  139.2490  160.8920  131.7550 O   0  0  0  0  0  0  0  0  0  0  0  0
  147.0260  158.5730  132.9150 C   0  0  0  0  0  0  0  0  0  0  0  0
  147.1520  159.7980  132.2540 C   0  0  0  0  0  0  0  0  0  0  0  0
  150.5285  161.9121  130.5584 H   0  0  0  0  0  0  0  0  0  0  0  0
  149.7419  160.7803  129.4066 H   0  0  0  0  0  0  0  0  0  0  0  0
  149.2910  162.5191  129.4066 H   0  0  0  0  0  0  0  0  0  0  0  0
  147.8560  162.1590  131.2160 H   0  0  0  0  0  0  0  0  0  0  0  0
  150.4826  159.5136  131.4246 H   0  0  0  0  0  0  0  0  0  0  0  0
  150.1977  157.3433  132.6671 H   0  0  0  0  0  0  0  0  0  0  0  0
  148.2812  155.7833  134.1130 H   0  0  0  0  0  0  0  0  0  0  0  0
  143.6950  157.1460  134.8390 H   0  0  0  0  0  0  0  0  0  0  0  0
  143.1228  156.5587  131.7204 H   0  0  0  0  0  0  0  0  0  0  0  0
  143.1425  156.6082  133.5209 H   0  0  0  0  0  0  0  0  0  0  0  0
  141.5534  159.7399  134.3123 H   0  0  0  0  0  0  0  0  0  0  0  0
  140.4974  159.2722  135.6837 H   0  0  0  0  0  0  0  0  0  0  0  0
  142.9960  158.0380  135.4310 H   0  0  0  0  0  0  0  0  0  0  0  0
  139.5974  157.5828  132.2037 H   0  0  0  0  0  0  0  0  0  0  0  0
  138.0952  156.6683  132.5715 H   0  0  0  0  0  0  0  0  0  0  0  0
  146.2921  160.4777  132.1610 H   0  0  0  0  0  0  0  0  0  0  0  0
  1  2  1  0
  2  3  1  0
  3  4  2  0
  4  5  1  0
  5  6  2  0
  6  7  1  0
  7  8  2  0
  8  9  1  0
  9 10  1  0
  9 11  2  0
  8 12  1  0
 12 13  1  0
 13 14  2  0
 13 15  1  0
 15 16  1  0
 16 17  1  0
 18 17  1  6
 18 19  2  0
 18 20  1  0
 20 21  1  0
 18 22  1  0
 22 23  1  0
 23 24  1  0
 24 25  1  0
 25 26  2  0
 25 27  1  0
 25 28  1  0
 12 29  1  0
 29 30  2  0
 30  3  1  0
 29  6  1  0
  1 31  1  0
  1 32  1  0
  1 33  1  0
  2 34  1  0
  4 35  1  0
  5 36  1  0
  7 37  1  0
 10 38  1  0
 16 39  1  0
 16 40  1  0
 20 41  1  0
 20 42  1  0
 21 43  1  0
 23 44  1  0
 23 45  1  0
 30 46  1  0
M  CHG  3  10  -1  27  -1  28  -1
M  END
>  <UniqueID>  (68) 
67

>  <SMILES>  (68) 
CNc1ccc2cc(C([NH-])=O)n(C(=O)OCO[P@@](=O)(CO)OCOP(=O)([O-])[O-])c2c1

>  <Energy>  (68) 
76.25933815634305

>  <Genealogy>  (68) 
CNc1ccc2cc(C([NH-])=O)n(C(=O)OCOP(=O)(CO)OCOP(=O)([O-])[O-])c2c1 (protonated)
CNc1ccc2cc(C([NH-])=O)n(C(=O)OCO[P@@](=O)(CO)OCOP(=O)([O-])[O-])c2c1 (chirality)
CNc1ccc2cc(C([NH-])=O)n(C(=O)OCO[P@@](=O)(CO)OCOP(=O)([O-])[O-])c2c1 (3D coordinates assigned)
CNc1ccc2cc(C([NH-])=O)n(C(=O)OCO[P@@](=O)(CO)OCOP(=O)([O-])[O-])c2c1 (optimized conformer: 76.25933815634305 kcal/mol)

>  <smiles>  (68) 
CNc1ccc2cc(C(N)=O)n(C(=O)OCOP(=O)(CO)OCOP(=O)(O)O)c2c1

>  <score_type>  (68) 
oracle

>  <origin>  (68) 
adg

>  <m_score__min__energy>  (68) 
-6.0599999999999996

>  <m_primary>  (68) 
energy

$$$$
69:0
     RDKit          3D

 34 35  0  0  0  0  0  0  0  0999 V2000
  145.1010  160.4620  133.5760 C   0  0  0  0  0  0  0  0  0  0  0  0
  146.1520  159.4100  133.3820 C   0  0  0  0  0  0  0  0  0  0  0  0
  147.4950  159.7840  133.1320 C   0  0  0  0  0  0  0  0  0  0  0  0
  148.4840  158.8060  132.9250 C   0  0  0  0  0  0  0  0  0  0  0  0
  148.0960  157.4700  132.9550 C   0  0  0  0  0  0  0  0  0  0  0  0
  148.8460  156.3240  132.8120 C   0  0  0  0  0  0  0  0  0  0  0  0
  147.9410  155.2700  132.9460 C   0  0  0  0  0  0  0  0  0  0  0  0
  148.2970  153.8360  132.8270 C   0  0  0  0  0  0  0  0  0  0  0  0
  147.8520  152.8840  133.7960 N   0  0  0  0  0  0  0  0  0  0  0  0
  149.0130  153.4410  131.8690 O   0  0  0  0  0  0  0  0  0  0  0  0
  146.6830  155.7500  133.1480 N   0  0  0  0  0  0  0  0  0  0  0  0
  145.4890  154.9900  133.3900 C   0  0  0  0  0  0  0  0  0  0  0  0
  145.1070  154.1520  132.5310 O   0  0  0  0  0  0  0  0  0  0  0  0
  144.7180  155.1760  134.6370 C   0  0  0  0  0  0  0  0  0  0  0  0
  143.7270  155.9530  134.6420 O   0  0  0  0  0  0  0  0  0  0  0  0
  145.0970  154.5060  135.8530 N   0  0  0  0  0  0  0  0  0  0  0  0
  144.0500  153.9200  136.6920 C   0  0  0  0  0  0  0  0  0  0  0  0
  146.4760  154.1950  136.1270 C   0  0  0  0  0  0  0  0  0  0  0  0
  147.3930  154.9920  135.7940 O   0  0  0  0  0  0  0  0  0  0  0  0
  146.8180  152.9930  136.7370 O   0  0  0  0  0  0  0  0  0  0  0  0
  146.7940  157.0960  133.1620 C   0  0  0  0  0  0  0  0  0  0  0  0
  145.7930  158.0440  133.3910 C   0  0  0  0  0  0  0  0  0  0  0  0
  144.9389  160.6243  134.6518 H   0  0  0  0  0  0  0  0  0  0  0  0
  145.4320  161.4015  133.1092 H   0  0  0  0  0  0  0  0  0  0  0  0
  144.1612  160.1319  133.1092 H   0  0  0  0  0  0  0  0  0  0  0  0
  147.7669  160.8494  133.0995 H   0  0  0  0  0  0  0  0  0  0  0  0
  149.5318  159.0883  132.7450 H   0  0  0  0  0  0  0  0  0  0  0  0
  149.9287  156.2541  132.6306 H   0  0  0  0  0  0  0  0  0  0  0  0
  147.2030  153.1510  134.5680 H   0  0  0  0  0  0  0  0  0  0  0  0
  148.1410  151.8840  133.7160 H   0  0  0  0  0  0  0  0  0  0  0  0
  144.3064  154.0635  137.7520 H   0  0  0  0  0  0  0  0  0  0  0  0
  143.0898  154.4118  136.4772 H   0  0  0  0  0  0  0  0  0  0  0  0
  143.9671  152.8444  136.4772 H   0  0  0  0  0  0  0  0  0  0  0  0
  144.7533  157.7346  133.5734 H   0  0  0  0  0  0  0  0  0  0  0  0
  1  2  1  0
  2  3  2  0
  3  4  1  0
  4  5  2  0
  5  6  1  0
  6  7  2  0
  7  8  1  0
  8  9  1  0
  8 10  2  0
  7 11  1  0
 11 12  1  0
 12 13  2  0
 12 14  1  0
 14 15  2  0
 14 16  1  0
 16 17  1  0
 16 18  1  0
 18 19  2  0
 18 20  1  0
 11 21  1  0
 21 22  2  0
 22  2  1  0
 21  5  1  0
  1 23  1  0
  1 24  1  0
  1 25  1  0
  3 26  1  0
  4 27  1  0
  6 28  1  0
  9 29  1  0
  9 30  1  0
 17 31  1  0
 17 32  1  0
 17 33  1  0
 22 34  1  0
M  CHG  1  20  -1
M  END
>  <UniqueID>  (69) 
68

>  <SMILES>  (69) 
Cc1ccc2cc(C(N)=O)n(C(=O)C(=O)N(C)C(=O)[O-])c2c1

>  <Energy>  (69) 
77.01832491637278

>  <Genealogy>  (69) 
Cc1ccc2cc(C(N)=O)n(C(=O)C(=O)N(C)C(=O)[O-])c2c1 (protonated)
Cc1ccc2cc(C(N)=O)n(C(=O)C(=O)N(C)C(=O)[O-])c2c1 (3D coordinates assigned)
Cc1ccc2cc(C(N)=O)n(C(=O)C(=O)N(C)C(=O)[O-])c2c1 (optimized conformer: 77.01832491637278 kcal/mol)

>  <smiles>  (69) 
Cc1ccc2cc(C(N)=O)n(C(=O)C(=O)N(C)C(=O)O)c2c1

>  <score_type>  (69) 
oracle

>  <origin>  (69) 
adg

>  <m_score__min__energy>  (69) 
-6.8499999999999996

>  <m_primary>  (69) 
energy

$$$$
70:0
     RDKit          3D

 41 42  0  0  0  0  0  0  0  0999 V2000
  139.5260  159.9750  131.8380 C   0  0  0  0  0  0  0  0  0  0  0  0
  139.7190  158.9040  132.7350 O   0  0  0  0  0  0  0  0  0  0  0  0
  138.4950  158.2350  132.9780 C   0  0  0  0  0  0  0  0  0  0  0  0
  138.7580  156.8240  133.4970 C   0  0  0  0  0  0  0  0  0  0  0  0
  139.8300  156.2400  132.7650 O   0  0  0  0  0  0  0  0  0  0  0  0
  140.7580  155.3730  133.3460 C   0  0  0  0  0  0  0  0  0  0  0  0
  140.5910  154.1230  133.2770 O   0  0  0  0  0  0  0  0  0  0  0  0
  141.8710  155.9190  133.9960 O   0  0  0  0  0  0  0  0  0  0  0  0
  142.4020  155.4590  135.2100 C   0  0  0  0  0  0  0  0  0  0  0  0
  143.4480  154.7530  135.2300 O   0  0  0  0  0  0  0  0  0  0  0  0
  141.7360  155.7830  136.4410 N   0  0  0  0  0  0  0  0  0  0  0  0
  141.2630  157.0010  136.8300 C   0  0  0  0  0  0  0  0  0  0  0  0
  141.4900  158.2780  136.1180 C   0  0  0  0  0  0  0  0  0  0  0  0
  141.1180  158.4250  134.7470 N   0  0  0  0  0  0  0  0  0  0  0  0
  141.9880  159.2610  136.7270 O   0  0  0  0  0  0  0  0  0  0  0  0
  140.6060  156.9000  138.0550 C   0  0  0  0  0  0  0  0  0  0  0  0
  140.6940  155.5730  138.4080 C   0  0  0  0  0  0  0  0  0  0  0  0
  140.1950  154.9120  139.5270 C   0  0  0  0  0  0  0  0  0  0  0  0
  140.4030  153.5250  139.6190 C   0  0  0  0  0  0  0  0  0  0  0  0
  141.1040  152.8320  138.6010 C   0  0  0  0  0  0  0  0  0  0  0  0
  141.2800  151.3420  138.6890 C   0  0  0  0  0  0  0  0  0  0  0  0
  140.3380  150.6560  137.7520 C   0  0  0  0  0  0  0  0  0  0  0  0
  139.3070  150.0870  138.1960 O   0  0  0  0  0  0  0  0  0  0  0  0
  140.6240  150.6020  136.3940 O   0  0  0  0  0  0  0  0  0  0  0  0
  141.5860  153.5350  137.4750 C   0  0  0  0  0  0  0  0  0  0  0  0
  141.3790  154.9190  137.4180 C   0  0  0  0  0  0  0  0  0  0  0  0
  139.3588  160.9026  132.4051 H   0  0  0  0  0  0  0  0  0  0  0  0
  140.4182  160.0882  131.2046 H   0  0  0  0  0  0  0  0  0  0  0  0
  138.6504  159.7696  131.2046 H   0  0  0  0  0  0  0  0  0  0  0  0
  137.9173  158.7958  133.7275 H   0  0  0  0  0  0  0  0  0  0  0  0
  137.9286  158.1710  132.0372 H   0  0  0  0  0  0  0  0  0  0  0  0
  139.0243  156.8695  134.5633 H   0  0  0  0  0  0  0  0  0  0  0  0
  137.8524  156.2126  133.3704 H   0  0  0  0  0  0  0  0  0  0  0  0
  140.7510  157.6190  134.1940 H   0  0  0  0  0  0  0  0  0  0  0  0
  141.2480  159.3410  134.2650 H   0  0  0  0  0  0  0  0  0  0  0  0
  140.1202  157.7093  138.6198 H   0  0  0  0  0  0  0  0  0  0  0  0
  139.6549  155.4581  140.3144 H   0  0  0  0  0  0  0  0  0  0  0  0
  140.0182  152.9726  140.4889 H   0  0  0  0  0  0  0  0  0  0  0  0
  142.3143  151.0815  138.4201 H   0  0  0  0  0  0  0  0  0  0  0  0
  141.0663  151.0148  139.7172 H   0  0  0  0  0  0  0  0  0  0  0  0
  142.1105  153.0091  136.6636 H   0  0  0  0  0  0  0  0  0  0  0  0
  1  2  1  0
  2  3  1  0
  3  4  1  0
  4  5  1  0
  5  6  1  0
  6  7  2  0
  6  8  1  0
  8  9  1  0
  9 10  2  0
  9 11  1  0
 11 12  1  0
 12 13  1  0
 13 14  1  0
 13 15  2  0
 12 16  2  0
 16 17  1  0
 17 18  2  0
 18 19  1  0
 19 20  2  0
 20 21  1  0
 21 22  1  0
 22 23  2  0
 22 24  1  0
 20 25  1  0
 25 26  2  0
 26 11  1  0
 26 17  1  0
  1 27  1  0
  1 28  1  0
  1 29  1  0
  3 30  1  0
  3 31  1  0
  4 32  1  0
  4 33  1  0
 14 34  1  0
 14 35  1  0
 16 36  1  0
 18 37  1  0
 19 38  1  0
 21 39  1  0
 21 40  1  0
 25 41  1  0
M  CHG  1  24  -1
M  END
>  <UniqueID>  (70) 
69

>  <SMILES>  (70) 
COCCOC(=O)OC(=O)n1c(C(N)=O)cc2ccc(CC(=O)[O-])cc21

>  <Energy>  (70) 
76.96060946003416

>  <Genealogy>  (70) 
COCCOC(=O)OC(=O)n1c(C(N)=O)cc2ccc(CC(=O)[O-])cc21 (protonated)
COCCOC(=O)OC(=O)n1c(C(N)=O)cc2ccc(CC(=O)[O-])cc21 (3D coordinates assigned)
COCCOC(=O)OC(=O)n1c(C(N)=O)cc2ccc(CC(=O)[O-])cc21 (optimized conformer: 76.96060946003416 kcal/mol)

>  <smiles>  (70) 
COCCOC(=O)OC(=O)n1c(C(N)=O)cc2ccc(CC(=O)O)cc21

>  <score_type>  (70) 
oracle

>  <origin>  (70) 
adg

>  <m_score__min__energy>  (70) 
-6.5899999999999999

>  <m_primary>  (70) 
energy

$$$$
71:0
     RDKit          3D

 41 42  0  0  0  0  0  0  0  0999 V2000
  143.4490  152.1480  132.9650 C   0  0  0  0  0  0  0  0  0  0  0  0
  142.0770  152.5550  133.2830 N   0  0  0  0  0  0  0  0  0  0  0  0
  140.9790  151.6590  132.9000 C   0  0  0  0  0  0  0  0  0  0  0  0
  140.9810  150.4360  133.7590 C   0  0  0  0  0  0  0  0  0  0  0  0
  141.0080  149.2920  133.2350 O   0  0  0  0  0  0  0  0  0  0  0  0
  140.9820  150.5620  135.1420 O   0  0  0  0  0  0  0  0  0  0  0  0
  141.8160  153.7050  134.1170 C   0  0  0  0  0  0  0  0  0  0  0  0
  141.7050  153.5560  135.3650 O   0  0  0  0  0  0  0  0  0  0  0  0
  141.6960  155.0260  133.5560 N   0  0  0  0  0  0  0  0  0  0  0  0
  142.8960  155.6860  133.0350 C   0  0  0  0  0  0  0  0  0  0  0  0
  140.4740  155.7820  133.6860 C   0  0  0  0  0  0  0  0  0  0  0  0
  139.4030  155.3320  133.1950 O   0  0  0  0  0  0  0  0  0  0  0  0
  140.4650  157.0680  134.3270 N   0  0  0  0  0  0  0  0  0  0  0  0
  140.2480  158.2880  133.7570 C   0  0  0  0  0  0  0  0  0  0  0  0
  139.8770  158.5320  132.3460 C   0  0  0  0  0  0  0  0  0  0  0  0
  138.7610  157.8500  131.7780 N   0  0  0  0  0  0  0  0  0  0  0  0
  140.5410  159.3260  131.6300 O   0  0  0  0  0  0  0  0  0  0  0  0
  140.3990  159.3000  134.7020 C   0  0  0  0  0  0  0  0  0  0  0  0
  140.7330  158.6610  135.8730 C   0  0  0  0  0  0  0  0  0  0  0  0
  141.0170  159.1850  137.1320 C   0  0  0  0  0  0  0  0  0  0  0  0
  141.3660  158.2870  138.1540 C   0  0  0  0  0  0  0  0  0  0  0  0
  141.4380  156.8950  137.9010 C   0  0  0  0  0  0  0  0  0  0  0  0
  141.8170  155.9520  139.0070 C   0  0  0  0  0  0  0  0  0  0  0  0
  141.4660  154.6610  138.6580 F   0  0  0  0  0  0  0  0  0  0  0  0
  141.1580  156.3080  140.1690 F   0  0  0  0  0  0  0  0  0  0  0  0
  141.1460  156.4010  136.6100 C   0  0  0  0  0  0  0  0  0  0  0  0
  140.7740  157.3150  135.6180 C   0  0  0  0  0  0  0  0  0  0  0  0
  144.0078  151.9822  133.8979 H   0  0  0  0  0  0  0  0  0  0  0  0
  143.4289  151.2171  132.3793 H   0  0  0  0  0  0  0  0  0  0  0  0
  143.9398  152.9392  132.3793 H   0  0  0  0  0  0  0  0  0  0  0  0
  140.0214  152.1863  133.0223 H   0  0  0  0  0  0  0  0  0  0  0  0
  141.1134  151.3582  131.8505 H   0  0  0  0  0  0  0  0  0  0  0  0
  143.5194  156.0289  133.8740 H   0  0  0  0  0  0  0  0  0  0  0  0
  143.4676  154.9753  132.4200 H   0  0  0  0  0  0  0  0  0  0  0  0
  142.6019  156.5493  132.4200 H   0  0  0  0  0  0  0  0  0  0  0  0
  138.3980  156.9690  132.2040 H   0  0  0  0  0  0  0  0  0  0  0  0
  140.2769  160.3818  134.5448 H   0  0  0  0  0  0  0  0  0  0  0  0
  140.9694  160.2678  137.3199 H   0  0  0  0  0  0  0  0  0  0  0  0
  141.5858  158.6688  139.1619 H   0  0  0  0  0  0  0  0  0  0  0  0
  142.9034  156.0055  139.1708 H   0  0  0  0  0  0  0  0  0  0  0  0
  141.2095  155.3250  136.3902 H   0  0  0  0  0  0  0  0  0  0  0  0
  1  2  1  0
  2  3  1  0
  3  4  1  0
  4  5  2  0
  4  6  1  0
  2  7  1  0
  7  8  2  0
  7  9  1  0
  9 10  1  0
  9 11  1  0
 11 12  2  0
 11 13  1  0
 13 14  1  0
 14 15  1  0
 15 16  1  0
 15 17  2  0
 14 18  2  0
 18 19  1  0
 19 20  2  0
 20 21  1  0
 21 22  2  0
 22 23  1  0
 23 24  1  0
 23 25  1  0
 22 26  1  0
 26 27  2  0
 27 13  1  0
 27 19  1  0
  1 28  1  0
  1 29  1  0
  1 30  1  0
  3 31  1  0
  3 32  1  0
 10 33  1  0
 10 34  1  0
 10 35  1  0
 16 36  1  0
 18 37  1  0
 20 38  1  0
 21 39  1  0
 23 40  1  0
 26 41  1  0
M  CHG  2   6  -1  16  -1
M  END
>  <UniqueID>  (71) 
70

>  <SMILES>  (71) 
CN(CC(=O)[O-])C(=O)N(C)C(=O)n1c(C([NH-])=O)cc2ccc(C(F)F)cc21

>  <Energy>  (71) 
78.57951340464751

>  <Genealogy>  (71) 
CN(CC(=O)[O-])C(=O)N(C)C(=O)n1c(C([NH-])=O)cc2ccc(C(F)F)cc21 (protonated)
CN(CC(=O)[O-])C(=O)N(C)C(=O)n1c(C([NH-])=O)cc2ccc(C(F)F)cc21 (3D coordinates assigned)
CN(CC(=O)[O-])C(=O)N(C)C(=O)n1c(C([NH-])=O)cc2ccc(C(F)F)cc21 (optimized conformer: 78.57951340464751 kcal/mol)

>  <smiles>  (71) 
CN(CC(=O)O)C(=O)N(C)C(=O)n1c(C(N)=O)cc2ccc(C(F)F)cc21

>  <score_type>  (71) 
oracle

>  <origin>  (71) 
adg

>  <m_score__min__energy>  (71) 
-6.1500000000000004

>  <m_primary>  (71) 
energy

$$$$
72:0
     RDKit          3D

 49 51  0  0  0  0  0  0  0  0999 V2000
  144.6670  160.5770  133.3600 C   0  0  0  0  0  0  0  0  0  0  0  0
  145.5990  159.4060  133.3070 C   0  0  0  0  0  0  0  0  0  0  0  0
  146.9190  159.5830  132.8240 C   0  0  0  0  0  0  0  0  0  0  0  0
  147.8150  158.5010  132.7750 C   0  0  0  0  0  0  0  0  0  0  0  0
  147.3680  157.2640  133.2360 C   0  0  0  0  0  0  0  0  0  0  0  0
  148.0160  156.0500  133.2950 C   0  0  0  0  0  0  0  0  0  0  0  0
  147.0930  155.1650  133.8500 C   0  0  0  0  0  0  0  0  0  0  0  0
  147.3870  153.7420  134.1210 C   0  0  0  0  0  0  0  0  0  0  0  0
  147.3930  152.7660  133.0780 N   0  0  0  0  0  0  0  0  0  0  0  0
  147.6180  153.3760  135.3040 O   0  0  0  0  0  0  0  0  0  0  0  0
  145.9150  155.8020  134.1000 N   0  0  0  0  0  0  0  0  0  0  0  0
  144.6850  155.2440  134.5910 C   0  0  0  0  0  0  0  0  0  0  0  0
  144.2600  155.6090  135.7210 O   0  0  0  0  0  0  0  0  0  0  0  0
  143.9200  154.3090  133.7990 N   0  0  0  0  0  0  0  0  0  0  0  0
  144.3030  152.8840  133.8450 C   0  0  0  0  0  0  0  0  0  0  0  0
  143.5750  152.0510  132.7880 C   0  0  0  0  0  0  0  0  0  0  0  0
  142.1440  152.3370  132.8320 N   0  0  0  0  0  0  0  0  0  0  0  0
  140.9810  151.0430  132.9240 S   0  0  0  0  0  0  0  0  0  0  0  0
  139.6050  151.5740  132.6210 O   0  0  0  0  0  0  0  0  0  0  0  0
  140.9610  150.4870  134.3210 O   0  0  0  0  0  0  0  0  0  0  0  0
  141.3680  149.7700  131.7890 N   0  0  0  0  0  0  0  0  0  0  0  0
  141.7020  148.5420  132.5190 C   0  0  0  0  0  0  0  0  0  0  0  0
  140.2250  149.5310  130.8980 C   0  0  0  0  0  0  0  0  0  0  0  0
  141.7420  153.7120  132.8310 C   0  0  0  0  0  0  0  0  0  0  0  0
  140.5380  154.0310  132.6440 O   0  0  0  0  0  0  0  0  0  0  0  0
  142.7790  154.7820  132.9880 C   0  0  0  0  0  0  0  0  0  0  0  0
  146.1020  157.0860  133.7300 C   0  0  0  0  0  0  0  0  0  0  0  0
  145.1830  158.1380  133.7730 C   0  0  0  0  0  0  0  0  0  0  0  0
  144.4617  160.8350  134.4094 H   0  0  0  0  0  0  0  0  0  0  0  0
  145.1301  161.4374  132.8548 H   0  0  0  0  0  0  0  0  0  0  0  0
  143.7246  160.3188  132.8548 H   0  0  0  0  0  0  0  0  0  0  0  0
  147.2459  160.5767  132.4840 H   0  0  0  0  0  0  0  0  0  0  0  0
  148.8360  158.6265  132.3854 H   0  0  0  0  0  0  0  0  0  0  0  0
  149.0436  155.8263  132.9726 H   0  0  0  0  0  0  0  0  0  0  0  0
  146.9910  152.9680  132.1360 H   0  0  0  0  0  0  0  0  0  0  0  0
  147.7170  151.7930  133.2800 H   0  0  0  0  0  0  0  0  0  0  0  0
  145.3866  152.8035  133.6737 H   0  0  0  0  0  0  0  0  0  0  0  0
  144.0215  152.4924  134.8336 H   0  0  0  0  0  0  0  0  0  0  0  0
  143.9671  152.3022  131.7914 H   0  0  0  0  0  0  0  0  0  0  0  0
  143.7382  150.9825  132.9921 H   0  0  0  0  0  0  0  0  0  0  0  0
  141.6500  148.7330  133.6010 H   0  0  0  0  0  0  0  0  0  0  0  0
  140.9865  147.7504  132.2516 H   0  0  0  0  0  0  0  0  0  0  0  0
  142.7198  148.2219  132.2516 H   0  0  0  0  0  0  0  0  0  0  0  0
  139.3239  149.3426  131.5001 H   0  0  0  0  0  0  0  0  0  0  0  0
  140.0637  150.4149  130.2633 H   0  0  0  0  0  0  0  0  0  0  0  0
  140.4314  148.6566  130.2633 H   0  0  0  0  0  0  0  0  0  0  0  0
  143.1441  155.0759  131.9929 H   0  0  0  0  0  0  0  0  0  0  0  0
  142.3189  155.6386  133.5024 H   0  0  0  0  0  0  0  0  0  0  0  0
  144.1645  157.9836  134.1587 H   0  0  0  0  0  0  0  0  0  0  0  0
  1  2  1  0
  2  3  2  0
  3  4  1  0
  4  5  2  0
  5  6  1  0
  6  7  2  0
  7  8  1  0
  8  9  1  0
  8 10  2  0
  7 11  1  0
 11 12  1  0
 12 13  2  0
 12 14  1  0
 14 15  1  0
 15 16  1  0
 16 17  1  0
 17 18  1  0
 18 19  2  0
 18 20  2  0
 18 21  1  0
 21 22  1  0
 21 23  1  0
 17 24  1  0
 24 25  2  0
 24 26  1  0
 11 27  1  0
 27 28  2  0
 28  2  1  0
 27  5  1  0
 26 14  1  0
  1 29  1  0
  1 30  1  0
  1 31  1  0
  3 32  1  0
  4 33  1  0
  6 34  1  0
  9 35  1  0
  9 36  1  0
 15 37  1  0
 15 38  1  0
 16 39  1  0
 16 40  1  0
 22 41  1  0
 22 42  1  0
 22 43  1  0
 23 44  1  0
 23 45  1  0
 23 46  1  0
 26 47  1  0
 26 48  1  0
 28 49  1  0
M  END
>  <UniqueID>  (72) 
71

>  <SMILES>  (72) 
Cc1ccc2cc(C(N)=O)n(C(=O)N3CCN(S(=O)(=O)N(C)C)C(=O)C3)c2c1

>  <Energy>  (72) 
86.99161379771873

>  <Genealogy>  (72) 
Cc1ccc2cc(C(N)=O)n(C(=O)N3CCN(S(=O)(=O)N(C)C)C(=O)C3)c2c1 (3D coordinates assigned)
Cc1ccc2cc(C(N)=O)n(C(=O)N3CCN(S(=O)(=O)N(C)C)C(=O)C3)c2c1 (nonaromatic ring conformer: 86.99161379771873 kcal/mol)

>  <smiles>  (72) 
Cc1ccc2cc(C(N)=O)n(C(=O)N3CCN(S(=O)(=O)N(C)C)C(=O)C3)c2c1

>  <score_type>  (72) 
oracle

>  <origin>  (72) 
adg

>  <m_score__min__energy>  (72) 
-8.5299999999999994

>  <m_primary>  (72) 
energy

$$$$
73:0
     RDKit          3D

 34 35  0  0  0  0  0  0  0  0999 V2000
  144.6600  154.1580  136.7050 N   0  0  0  0  0  0  0  0  0  0  0  0
  144.3180  154.6040  135.3930 C   0  0  0  0  0  0  0  0  0  0  0  0
  143.3760  154.0380  134.7760 O   0  0  0  0  0  0  0  0  0  0  0  0
  145.0790  155.6790  134.7220 C   0  0  0  0  0  0  0  0  0  0  0  0
  144.5180  156.8950  134.3370 C   0  0  0  0  0  0  0  0  0  0  0  0
  145.5430  157.5950  133.7420 C   0  0  0  0  0  0  0  0  0  0  0  0
  145.5530  158.8780  133.2020 C   0  0  0  0  0  0  0  0  0  0  0  0
  146.7690  159.3740  132.7040 C   0  0  0  0  0  0  0  0  0  0  0  0
  147.9480  158.5880  132.7650 C   0  0  0  0  0  0  0  0  0  0  0  0
  149.2530  159.1390  132.2690 C   0  0  0  0  0  0  0  0  0  0  0  0
  149.1630  160.5120  132.1310 F   0  0  0  0  0  0  0  0  0  0  0  0
  149.5590  158.5770  131.0430 F   0  0  0  0  0  0  0  0  0  0  0  0
  147.8990  157.2930  133.3250 C   0  0  0  0  0  0  0  0  0  0  0  0
  146.6690  156.8130  133.7890 C   0  0  0  0  0  0  0  0  0  0  0  0
  146.3980  155.6300  134.3850 N   0  0  0  0  0  0  0  0  0  0  0  0
  147.3340  154.5900  134.7130 C   0  0  0  0  0  0  0  0  0  0  0  0
  147.7320  153.8070  133.8100 O   0  0  0  0  0  0  0  0  0  0  0  0
  147.8560  154.4230  136.1080 C   0  0  0  0  0  0  0  0  0  0  0  0
  147.3130  153.2510  136.6810 O   0  0  0  0  0  0  0  0  0  0  0  0
  147.7910  153.0750  137.9990 C   0  0  0  0  0  0  0  0  0  0  0  0
  146.7010  153.3610  138.9810 C   0  0  0  0  0  0  0  0  0  0  0  0
  145.5250  152.9690  138.7560 O   0  0  0  0  0  0  0  0  0  0  0  0
  146.9730  154.1000  140.1240 O   0  0  0  0  0  0  0  0  0  0  0  0
  144.0730  153.4380  137.1820 H   0  0  0  0  0  0  0  0  0  0  0  0
  145.5470  154.4590  137.1650 H   0  0  0  0  0  0  0  0  0  0  0  0
  143.4782  157.2250  134.4784 H   0  0  0  0  0  0  0  0  0  0  0  0
  144.6363  159.4850  133.1664 H   0  0  0  0  0  0  0  0  0  0  0  0
  146.8073  160.3809  132.2628 H   0  0  0  0  0  0  0  0  0  0  0  0
  150.0428  158.8961  132.9951 H   0  0  0  0  0  0  0  0  0  0  0  0
  148.8066  156.6755  133.3950 H   0  0  0  0  0  0  0  0  0  0  0  0
  148.9528  154.3430  136.0812 H   0  0  0  0  0  0  0  0  0  0  0  0
  147.5647  155.2940  136.7134 H   0  0  0  0  0  0  0  0  0  0  0  0
  148.1333  152.0374  138.1267 H   0  0  0  0  0  0  0  0  0  0  0  0
  148.6267  153.7682  138.1754 H   0  0  0  0  0  0  0  0  0  0  0  0
  1  2  1  0
  2  3  2  0
  2  4  1  0
  4  5  2  0
  5  6  1  0
  6  7  2  0
  7  8  1  0
  8  9  2  0
  9 10  1  0
 10 11  1  0
 10 12  1  0
  9 13  1  0
 13 14  2  0
 14 15  1  0
 15 16  1  0
 16 17  2  0
 16 18  1  0
 18 19  1  0
 19 20  1  0
 20 21  1  0
 21 22  2  0
 21 23  1  0
 15  4  1  0
 14  6  1  0
  1 24  1  0
  1 25  1  0
  5 26  1  0
  7 27  1  0
  8 28  1  0
 10 29  1  0
 13 30  1  0
 18 31  1  0
 18 32  1  0
 20 33  1  0
 20 34  1  0
M  CHG  1  23  -1
M  END
>  <UniqueID>  (73) 
72

>  <SMILES>  (73) 
NC(=O)c1cc2ccc(C(F)F)cc2n1C(=O)COCC(=O)[O-]

>  <Energy>  (73) 
73.76140684709601

>  <Genealogy>  (73) 
NC(=O)c1cc2ccc(C(F)F)cc2n1C(=O)COCC(=O)[O-] (protonated)
NC(=O)c1cc2ccc(C(F)F)cc2n1C(=O)COCC(=O)[O-] (3D coordinates assigned)
NC(=O)c1cc2ccc(C(F)F)cc2n1C(=O)COCC(=O)[O-] (optimized conformer: 73.76140684709601 kcal/mol)

>  <smiles>  (73) 
NC(=O)c1cc2ccc(C(F)F)cc2n1C(=O)COCC(=O)O

>  <score_type>  (73) 
oracle

>  <origin>  (73) 
adg

>  <m_score__min__energy>  (73) 
-5.96

>  <m_primary>  (73) 
energy

$$$$
74:0
     RDKit          3D

 45 46  0  0  0  0  0  0  0  0999 V2000
  141.4350  154.9210  134.0500 C   0  0  0  0  0  0  0  0  0  0  0  0
  141.8370  156.2450  134.5380 N   0  0  0  0  0  0  0  0  0  0  0  0
  140.8630  157.0750  135.2670 C   0  0  0  0  0  0  0  0  0  0  0  0
  140.6580  158.4040  134.5820 C   0  0  0  0  0  0  0  0  0  0  0  0
  140.6390  159.4240  135.2580 O   0  0  0  0  0  0  0  0  0  0  0  0
  140.5360  158.4810  133.1400 N   0  0  0  0  0  0  0  0  0  0  0  0
  139.8610  159.7290  132.7540 C   0  0  0  0  0  0  0  0  0  0  0  0
  139.8050  157.3120  132.6210 C   0  0  0  0  0  0  0  0  0  0  0  0
  143.2190  156.6400  134.3620 C   0  0  0  0  0  0  0  0  0  0  0  0
  144.0650  156.3140  135.2380 O   0  0  0  0  0  0  0  0  0  0  0  0
  143.6910  157.4270  133.1990 C   0  0  0  0  0  0  0  0  0  0  0  0
  143.0140  157.4900  132.1390 O   0  0  0  0  0  0  0  0  0  0  0  0
  144.9340  158.1390  133.2740 N   0  0  0  0  0  0  0  0  0  0  0  0
  145.1260  159.4790  133.4180 C   0  0  0  0  0  0  0  0  0  0  0  0
  144.0610  160.4820  133.6300 C   0  0  0  0  0  0  0  0  0  0  0  0
  142.7100  160.1610  133.3100 N   0  0  0  0  0  0  0  0  0  0  0  0
  144.3360  161.6270  134.0770 O   0  0  0  0  0  0  0  0  0  0  0  0
  146.4860  159.7810  133.3780 C   0  0  0  0  0  0  0  0  0  0  0  0
  147.1230  158.5700  133.2100 C   0  0  0  0  0  0  0  0  0  0  0  0
  148.4780  158.2750  133.0880 C   0  0  0  0  0  0  0  0  0  0  0  0
  148.8440  156.9300  132.8980 C   0  0  0  0  0  0  0  0  0  0  0  0
  147.8580  155.9140  132.8370 C   0  0  0  0  0  0  0  0  0  0  0  0
  148.2660  154.4860  132.6170 C   0  0  0  0  0  0  0  0  0  0  0  0
  148.0710  153.7590  133.7770 F   0  0  0  0  0  0  0  0  0  0  0  0
  149.6030  154.4340  132.2650 F   0  0  0  0  0  0  0  0  0  0  0  0
  146.4940  156.2530  132.9680 C   0  0  0  0  0  0  0  0  0  0  0  0
  146.1600  157.5970  133.1540 C   0  0  0  0  0  0  0  0  0  0  0  0
  141.2343  154.2601  134.9061 H   0  0  0  0  0  0  0  0  0  0  0  0
  140.5252  155.0161  133.4390 H   0  0  0  0  0  0  0  0  0  0  0  0
  142.2440  154.4942  133.4390 H   0  0  0  0  0  0  0  0  0  0  0  0
  139.9014  156.5429  135.3130 H   0  0  0  0  0  0  0  0  0  0  0  0
  141.2520  157.2609  136.2790 H   0  0  0  0  0  0  0  0  0  0  0  0
  141.4900  158.4850  132.7070 H   0  0  0  0  0  0  0  0  0  0  0  0
  139.5632  160.2797  133.6585 H   0  0  0  0  0  0  0  0  0  0  0  0
  140.5474  160.3478  132.1574 H   0  0  0  0  0  0  0  0  0  0  0  0
  138.9674  159.4932  132.1574 H   0  0  0  0  0  0  0  0  0  0  0  0
  139.4293  156.7113  133.4624 H   0  0  0  0  0  0  0  0  0  0  0  0
  138.9584  157.6521  132.0065 H   0  0  0  0  0  0  0  0  0  0  0  0
  140.4814  156.6997  132.0065 H   0  0  0  0  0  0  0  0  0  0  0  0
  142.4840  159.5070  132.5280 H   0  0  0  0  0  0  0  0  0  0  0  0
  146.9518  160.7739  133.4625 H   0  0  0  0  0  0  0  0  0  0  0  0
  149.2383  159.0683  133.1385 H   0  0  0  0  0  0  0  0  0  0  0  0
  149.9065  156.6642  132.7957 H   0  0  0  0  0  0  0  0  0  0  0  0
  147.6544  154.0575  131.8094 H   0  0  0  0  0  0  0  0  0  0  0  0
  145.7138  155.4788  132.9248 H   0  0  0  0  0  0  0  0  0  0  0  0
  1  2  1  0
  2  3  1  0
  3  4  1  0
  4  5  2  0
  4  6  1  0
  6  7  1  0
  6  8  1  0
  2  9  1  0
  9 10  2  0
  9 11  1  0
 11 12  2  0
 11 13  1  0
 13 14  1  0
 14 15  1  0
 15 16  1  0
 15 17  2  0
 14 18  2  0
 18 19  1  0
 19 20  2  0
 20 21  1  0
 21 22  2  0
 22 23  1  0
 23 24  1  0
 23 25  1  0
 22 26  1  0
 26 27  2  0
 27 13  1  0
 27 19  1  0
  1 28  1  0
  1 29  1  0
  1 30  1  0
  3 31  1  0
  3 32  1  0
  6 33  1  0
  7 34  1  0
  7 35  1  0
  7 36  1  0
  8 37  1  0
  8 38  1  0
  8 39  1  0
 16 40  1  0
 18 41  1  0
 20 42  1  0
 21 43  1  0
 23 44  1  0
 26 45  1  0
M  CHG  2   6   1  16  -1
M  END
>  <UniqueID>  (74) 
73

>  <SMILES>  (74) 
CN(CC(=O)[NH+](C)C)C(=O)C(=O)n1c(C([NH-])=O)cc2ccc(C(F)F)cc21

>  <Energy>  (74) 
82.08918725053172

>  <Genealogy>  (74) 
CN(CC(=O)[NH+](C)C)C(=O)C(=O)n1c(C([NH-])=O)cc2ccc(C(F)F)cc21 (protonated)
CN(CC(=O)[NH+](C)C)C(=O)C(=O)n1c(C([NH-])=O)cc2ccc(C(F)F)cc21 (3D coordinates assigned)
CN(CC(=O)[NH+](C)C)C(=O)C(=O)n1c(C([NH-])=O)cc2ccc(C(F)F)cc21 (optimized conformer: 82.08918725053172 kcal/mol)

>  <smiles>  (74) 
CN(C)C(=O)CN(C)C(=O)C(=O)n1c(C(N)=O)cc2ccc(C(F)F)cc21

>  <score_type>  (74) 
oracle

>  <origin>  (74) 
adg

>  <m_score__min__energy>  (74) 
-5.5

>  <m_primary>  (74) 
energy

$$$$
75:0
     RDKit          3D

 51 52  0  0  0  0  0  0  0  0999 V2000
  144.7130  154.0790  137.6350 H   0  0  0  0  0  0  0  0  0  0  0  0
  143.9300  153.5130  138.0300 N   0  0  0  0  0  0  0  0  0  0  0  0
  142.5770  153.7820  137.6720 C   0  0  0  0  0  0  0  0  0  0  0  0
  141.7250  152.8560  137.7470 O   0  0  0  0  0  0  0  0  0  0  0  0
  142.1670  155.1180  137.1890 C   0  0  0  0  0  0  0  0  0  0  0  0
  141.5620  156.0810  137.9950 C   0  0  0  0  0  0  0  0  0  0  0  0
  141.3310  156.0034  139.0677 H   0  0  0  0  0  0  0  0  0  0  0  0
  141.3150  157.1500  137.1630 C   0  0  0  0  0  0  0  0  0  0  0  0
  140.7540  158.3930  137.4410 C   0  0  0  0  0  0  0  0  0  0  0  0
  140.3953  158.6401  138.4511 H   0  0  0  0  0  0  0  0  0  0  0  0
  140.6600  159.3220  136.3920 C   0  0  0  0  0  0  0  0  0  0  0  0
  140.2215  160.3131  136.5801 H   0  0  0  0  0  0  0  0  0  0  0  0
  141.1250  158.9950  135.0920 C   0  0  0  0  0  0  0  0  0  0  0  0
  141.0920  160.0210  133.9980 C   0  0  0  0  0  0  0  0  0  0  0  0
  142.1069  160.1537  133.5952 H   0  0  0  0  0  0  0  0  0  0  0  0
  140.7215  160.9707  134.4113 H   0  0  0  0  0  0  0  0  0  0  0  0
  139.9800  159.4870  132.6580 P   0  0  0  0  0  0  0  0  0  0  0  0
  140.8390  158.9270  131.5440 O   0  0  0  0  0  0  0  0  0  0  0  0
  138.9580  158.2480  133.2430 O   0  0  0  0  0  0  0  0  0  0  0  0
  139.1210  157.0950  132.4500 C   0  0  0  0  0  0  0  0  0  0  0  0
  139.9398  157.2536  131.7327 H   0  0  0  0  0  0  0  0  0  0  0  0
  138.1919  156.8894  131.8981 H   0  0  0  0  0  0  0  0  0  0  0  0
  139.4540  155.9170  133.3510 C   0  0  0  0  0  0  0  0  0  0  0  0
  139.3671  156.2244  134.4036 H   0  0  0  0  0  0  0  0  0  0  0  0
  138.7537  155.0927  133.1507 H   0  0  0  0  0  0  0  0  0  0  0  0
  140.4822  155.5814  133.1507 H   0  0  0  0  0  0  0  0  0  0  0  0
  139.0890  160.8420  132.1140 O   0  0  0  0  0  0  0  0  0  0  0  0
  137.9490  160.3950  131.4200 C   0  0  0  0  0  0  0  0  0  0  0  0
  137.5622  159.4815  131.8954 H   0  0  0  0  0  0  0  0  0  0  0  0
  137.1703  161.1715  131.4444 H   0  0  0  0  0  0  0  0  0  0  0  0
  138.3330  160.0970  129.9800 C   0  0  0  0  0  0  0  0  0  0  0  0
  139.2019  159.4227  129.9643 H   0  0  0  0  0  0  0  0  0  0  0  0
  137.4868  159.6168  129.4667 H   0  0  0  0  0  0  0  0  0  0  0  0
  138.5882  161.0359  129.4667 H   0  0  0  0  0  0  0  0  0  0  0  0
  141.6930  157.7250  134.8500 C   0  0  0  0  0  0  0  0  0  0  0  0
  142.0714  157.4570  133.8525 H   0  0  0  0  0  0  0  0  0  0  0  0
  141.7620  156.8170  135.9110 C   0  0  0  0  0  0  0  0  0  0  0  0
  142.2830  155.5710  135.9100 N   0  0  0  0  0  0  0  0  0  0  0  0
  142.9330  154.9260  134.8040 C   0  0  0  0  0  0  0  0  0  0  0  0
  142.3730  154.9180  133.6760 O   0  0  0  0  0  0  0  0  0  0  0  0
  144.2380  154.2550  134.9570 C   0  0  0  0  0  0  0  0  0  0  0  0
  144.3794  153.2643  134.5005 H   0  0  0  0  0  0  0  0  0  0  0  0
  145.2560  154.8040  135.6290 C   0  0  0  0  0  0  0  0  0  0  0  0
  145.1190  155.7945  136.0875 H   0  0  0  0  0  0  0  0  0  0  0  0
  146.5510  154.1260  135.7740 C   0  0  0  0  0  0  0  0  0  0  0  0
  146.7330  153.3520  136.7540 O   0  0  0  0  0  0  0  0  0  0  0  0
  147.5690  154.3320  134.8370 O   0  0  0  0  0  0  0  0  0  0  0  0
  147.4520  155.2660  133.7700 C   0  0  0  0  0  0  0  0  0  0  0  0
  147.3252  156.2784  134.1811 H   0  0  0  0  0  0  0  0  0  0  0  0
  148.3614  155.2325  133.1520 H   0  0  0  0  0  0  0  0  0  0  0  0
  146.5790  155.0092  133.1520 H   0  0  0  0  0  0  0  0  0  0  0  0
  1  2  1  0
  2  3  1  0
  3  4  2  0
  3  5  1  0
  5  6  2  0
  6  7  1  0
  6  8  1  0
  8  9  2  0
  9 10  1  0
  9 11  1  0
 11 12  1  0
 11 13  2  0
 13 14  1  0
 14 15  1  0
 14 16  1  0
 14 17  1  0
 17 18  2  0
 17 19  1  0
 19 20  1  0
 20 21  1  0
 20 22  1  0
 20 23  1  0
 23 24  1  0
 23 25  1  0
 23 26  1  0
 17 27  1  0
 27 28  1  0
 28 29  1  0
 28 30  1  0
 28 31  1  0
 31 32  1  0
 31 33  1  0
 31 34  1  0
 13 35  1  0
 35 36  1  0
 35 37  2  0
 37 38  1  0
 38 39  1  0
 39 40  2  0
 39 41  1  0
 41 42  1  0
 41 43  2  0
 43 44  1  0
 43 45  1  0
 45 46  2  0
 45 47  1  0
 47 48  1  0
 48 49  1  0
 48 50  1  0
 48 51  1  0
 38  5  1  0
 37  8  1  0
M  CHG  1   2  -1
M  END
>  <UniqueID>  (75) 
74

>  <SMILES>  (75) 
CCOP(=O)(Cc1ccc2cc(C([NH-])=O)n(C(=O)/C=C/C(=O)OC)c2c1)OCC

>  <Energy>  (75) 
73.46097714750103

>  <Genealogy>  (75) 
CCOP(=O)(Cc1ccc2cc(C([NH-])=O)n(C(=O)/C=C/C(=O)OC)c2c1)OCC (protonated)
CCOP(=O)(Cc1ccc2cc(C([NH-])=O)n(C(=O)/C=C/C(=O)OC)c2c1)OCC (cis-trans isomerization)
CCOP(=O)(Cc1ccc2cc(C([NH-])=O)n(C(=O)/C=C/C(=O)OC)c2c1)OCC (3D coordinates assigned)
CCOP(=O)(Cc1ccc2cc(C([NH-])=O)n(C(=O)/C=C/C(=O)OC)c2c1)OCC (optimized conformer: 73.46097714750103 kcal/mol)

>  <smiles>  (75) 
CCOP(=O)(Cc1ccc2cc(C(N)=O)n(C(=O)/C=C/C(=O)OC)c2c1)OCC

>  <score_type>  (75) 
oracle

>  <origin>  (75) 
adg

>  <m_score__min__energy>  (75) 
-7.75

>  <m_primary>  (75) 
energy

$$$$
76:0
     RDKit          3D

 44 45  0  0  0  0  0  0  0  0999 V2000
  138.5740  149.1880  131.3540 C   0  0  0  0  0  0  0  0  0  0  0  0
  139.8460  149.8150  131.8420 C   0  0  0  0  0  0  0  0  0  0  0  0
  141.0470  149.0640  131.8530 C   0  0  0  0  0  0  0  0  0  0  0  0
  142.2550  149.6540  132.2600 C   0  0  0  0  0  0  0  0  0  0  0  0
  142.2300  150.9900  132.6470 C   0  0  0  0  0  0  0  0  0  0  0  0
  143.2590  151.8130  133.0450 C   0  0  0  0  0  0  0  0  0  0  0  0
  142.6680  153.0500  133.2840 C   0  0  0  0  0  0  0  0  0  0  0  0
  143.4120  154.2220  133.7870 C   0  0  0  0  0  0  0  0  0  0  0  0
  143.4430  155.4490  133.0570 N   0  0  0  0  0  0  0  0  0  0  0  0
  143.9850  154.1560  134.9070 O   0  0  0  0  0  0  0  0  0  0  0  0
  141.3300  153.0020  133.0330 N   0  0  0  0  0  0  0  0  0  0  0  0
  140.4050  154.1030  133.0400 C   0  0  0  0  0  0  0  0  0  0  0  0
  139.1650  153.8830  132.9830 O   0  0  0  0  0  0  0  0  0  0  0  0
  140.8980  155.4140  133.1010 O   0  0  0  0  0  0  0  0  0  0  0  0
  140.1350  156.5520  133.3880 C   0  0  0  0  0  0  0  0  0  0  0  0
  139.0140  156.7280  132.8360 O   0  0  0  0  0  0  0  0  0  0  0  0
  140.5980  157.5030  134.3680 N   0  0  0  0  0  0  0  0  0  0  0  0
  140.4050  157.1220  135.7760 C   0  0  0  0  0  0  0  0  0  0  0  0
  141.4360  158.6810  134.0070 C   0  0  0  0  0  0  0  0  0  0  0  0
  141.7290  159.5800  135.2320 C   0  0  0  0  0  0  0  0  0  0  0  0
  140.7000  159.5060  132.9350 C   0  0  0  0  0  0  0  0  0  0  0  0
  142.7870  158.2160  133.4880 C   0  0  0  0  0  0  0  0  0  0  0  0
  142.8890  157.7670  132.3160 O   0  0  0  0  0  0  0  0  0  0  0  0
  143.9130  158.2270  134.3060 O   0  0  0  0  0  0  0  0  0  0  0  0
  141.0750  151.7310  132.6470 C   0  0  0  0  0  0  0  0  0  0  0  0
  139.8620  151.1730  132.2240 C   0  0  0  0  0  0  0  0  0  0  0  0
  137.9603  148.8855  132.2154 H   0  0  0  0  0  0  0  0  0  0  0  0
  138.0173  149.9149  130.7444 H   0  0  0  0  0  0  0  0  0  0  0  0
  138.8115  148.3037  130.7444 H   0  0  0  0  0  0  0  0  0  0  0  0
  141.0335  148.0095  131.5401 H   0  0  0  0  0  0  0  0  0  0  0  0
  143.1918  149.0775  132.2723 H   0  0  0  0  0  0  0  0  0  0  0  0
  144.3216  151.5492  133.1514 H   0  0  0  0  0  0  0  0  0  0  0  0
  142.8460  155.5900  132.2130 H   0  0  0  0  0  0  0  0  0  0  0  0
  144.0140  156.2510  133.4050 H   0  0  0  0  0  0  0  0  0  0  0  0
  140.8054  157.9124  136.4279 H   0  0  0  0  0  0  0  0  0  0  0  0
  139.3315  156.9902  135.9764 H   0  0  0  0  0  0  0  0  0  0  0  0
  140.9339  156.1785  135.9764 H   0  0  0  0  0  0  0  0  0  0  0  0
  141.5440  159.0125  136.1559 H   0  0  0  0  0  0  0  0  0  0  0  0
  142.7796  159.9050  135.2054 H   0  0  0  0  0  0  0  0  0  0  0  0
  141.0717  160.4616  135.2054 H   0  0  0  0  0  0  0  0  0  0  0  0
  140.0442  160.2411  133.4243 H   0  0  0  0  0  0  0  0  0  0  0  0
  141.4353  160.0310  132.3075 H   0  0  0  0  0  0  0  0  0  0  0  0
  140.0949  158.8352  132.3075 H   0  0  0  0  0  0  0  0  0  0  0  0
  138.9444  151.7787  132.1905 H   0  0  0  0  0  0  0  0  0  0  0  0
  1  2  1  0
  2  3  2  0
  3  4  1  0
  4  5  2  0
  5  6  1  0
  6  7  2  0
  7  8  1  0
  8  9  1  0
  8 10  2  0
  7 11  1  0
 11 12  1  0
 12 13  2  0
 12 14  1  0
 14 15  1  0
 15 16  2  0
 15 17  1  0
 17 18  1  0
 17 19  1  0
 19 20  1  0
 19 21  1  0
 19 22  1  0
 22 23  2  0
 22 24  1  0
 11 25  1  0
 25 26  2  0
 26  2  1  0
 25  5  1  0
  1 27  1  0
  1 28  1  0
  1 29  1  0
  3 30  1  0
  4 31  1  0
  6 32  1  0
  9 33  1  0
  9 34  1  0
 18 35  1  0
 18 36  1  0
 18 37  1  0
 20 38  1  0
 20 39  1  0
 20 40  1  0
 21 41  1  0
 21 42  1  0
 21 43  1  0
 26 44  1  0
M  CHG  1  24  -1
M  END
>  <UniqueID>  (76) 
75

>  <SMILES>  (76) 
Cc1ccc2cc(C(N)=O)n(C(=O)OC(=O)N(C)C(C)(C)C(=O)[O-])c2c1

>  <Energy>  (76) 
86.34781693563336

>  <Genealogy>  (76) 
Cc1ccc2cc(C(N)=O)n(C(=O)OC(=O)N(C)C(C)(C)C(=O)[O-])c2c1 (protonated)
Cc1ccc2cc(C(N)=O)n(C(=O)OC(=O)N(C)C(C)(C)C(=O)[O-])c2c1 (3D coordinates assigned)
Cc1ccc2cc(C(N)=O)n(C(=O)OC(=O)N(C)C(C)(C)C(=O)[O-])c2c1 (optimized conformer: 86.34781693563336 kcal/mol)

>  <smiles>  (76) 
Cc1ccc2cc(C(N)=O)n(C(=O)OC(=O)N(C)C(C)(C)C(=O)O)c2c1

>  <score_type>  (76) 
oracle

>  <origin>  (76) 
adg

>  <m_score__min__energy>  (76) 
-7.2199999999999998

>  <m_primary>  (76) 
energy

$$$$
77:0
     RDKit          3D

 67 68  0  0  0  0  0  0  0  0999 V2000
  148.5500  157.4680  131.1890 H   0  0  0  0  0  0  0  0  0  0  0  0
  148.7370  158.4400  131.5190 N   0  0  0  0  0  0  0  0  0  0  0  0
  148.2340  158.9080  132.7680 C   0  0  0  0  0  0  0  0  0  0  0  0
  149.0450  159.2890  133.6570 O   0  0  0  0  0  0  0  0  0  0  0  0
  146.7820  158.9120  133.0480 C   0  0  0  0  0  0  0  0  0  0  0  0
  146.0060  160.0660  133.1550 C   0  0  0  0  0  0  0  0  0  0  0  0
  146.3397  161.1076  133.0384 H   0  0  0  0  0  0  0  0  0  0  0  0
  144.7320  159.6230  133.4380 C   0  0  0  0  0  0  0  0  0  0  0  0
  143.5460  160.3300  133.6030 C   0  0  0  0  0  0  0  0  0  0  0  0
  143.5253  161.4278  133.5362 H   0  0  0  0  0  0  0  0  0  0  0  0
  142.3740  159.5960  133.8580 C   0  0  0  0  0  0  0  0  0  0  0  0
  141.4191  160.1283  133.9801 H   0  0  0  0  0  0  0  0  0  0  0  0
  142.4010  158.1760  133.9610 C   0  0  0  0  0  0  0  0  0  0  0  0
  141.1990  157.4250  134.2720 N   0  0  0  0  0  0  0  0  0  0  0  0
  139.8910  158.1060  134.2660 C   0  0  0  0  0  0  0  0  0  0  0  0
  139.2641  157.6872  135.0670 H   0  0  0  0  0  0  0  0  0  0  0  0
  140.0560  159.1816  134.4271 H   0  0  0  0  0  0  0  0  0  0  0  0
  139.1770  157.9180  132.9200 C   0  0  0  0  0  0  0  0  0  0  0  0
  139.3591  156.8919  132.5680 H   0  0  0  0  0  0  0  0  0  0  0  0
  138.1076  158.1139  133.0871 H   0  0  0  0  0  0  0  0  0  0  0  0
  139.6610  158.9060  131.8290 C   0  0  0  0  0  0  0  0  0  0  0  0
  140.0875  159.7858  132.3331 H   0  0  0  0  0  0  0  0  0  0  0  0
  140.3879  158.3504  131.2183 H   0  0  0  0  0  0  0  0  0  0  0  0
  138.6160  159.3790  130.8900 N   0  0  0  0  0  0  0  0  0  0  0  0
  137.2520  159.0060  131.2900 C   0  0  0  0  0  0  0  0  0  0  0  0
  137.1840  158.9874  132.3877 H   0  0  0  0  0  0  0  0  0  0  0  0
  136.5386  159.7420  130.8908 H   0  0  0  0  0  0  0  0  0  0  0  0
  137.0124  158.0094  130.8908 H   0  0  0  0  0  0  0  0  0  0  0  0
  138.7130  160.8110  130.5620 C   0  0  0  0  0  0  0  0  0  0  0  0
  138.7528  161.3982  131.4913 H   0  0  0  0  0  0  0  0  0  0  0  0
  139.6254  160.9917  129.9748 H   0  0  0  0  0  0  0  0  0  0  0  0
  137.8333  161.1131  129.9748 H   0  0  0  0  0  0  0  0  0  0  0  0
  141.2650  156.0180  134.7180 C   0  0  0  0  0  0  0  0  0  0  0  0
  142.1579  155.8931  135.3482 H   0  0  0  0  0  0  0  0  0  0  0  0
  140.3362  155.8069  135.2683 H   0  0  0  0  0  0  0  0  0  0  0  0
  141.3440  155.0100  133.5510 C   0  0  0  0  0  0  0  0  0  0  0  0
  140.3424  154.9257  133.1040 H   0  0  0  0  0  0  0  0  0  0  0  0
  142.1000  155.4026  132.8551 H   0  0  0  0  0  0  0  0  0  0  0  0
  141.8150  153.5890  133.9470 C   0  0  0  0  0  0  0  0  0  0  0  0
  141.8531  153.5284  135.0447 H   0  0  0  0  0  0  0  0  0  0  0  0
  141.0960  152.8781  133.5139 H   0  0  0  0  0  0  0  0  0  0  0  0
  143.1550  153.2360  133.4100 N   0  0  0  0  0  0  0  0  0  0  0  0
  143.8830  153.3820  134.1480 H   0  0  0  0  0  0  0  0  0  0  0  0
  143.5160  154.0660  132.2410 C   0  0  0  0  0  0  0  0  0  0  0  0
  143.9326  155.0238  132.5860 H   0  0  0  0  0  0  0  0  0  0  0  0
  144.2656  153.5376  131.6336 H   0  0  0  0  0  0  0  0  0  0  0  0
  142.6184  154.2541  131.6336 H   0  0  0  0  0  0  0  0  0  0  0  0
  143.1880  151.8120  133.0230 C   0  0  0  0  0  0  0  0  0  0  0  0
  143.2025  151.1864  133.9277 H   0  0  0  0  0  0  0  0  0  0  0  0
  142.2951  151.5734  132.4265 H   0  0  0  0  0  0  0  0  0  0  0  0
  144.0910  151.6150  132.4265 H   0  0  0  0  0  0  0  0  0  0  0  0
  143.6300  157.5030  133.7680 C   0  0  0  0  0  0  0  0  0  0  0  0
  143.6838  156.4060  133.8284 H   0  0  0  0  0  0  0  0  0  0  0  0
  144.7710  158.2560  133.5000 C   0  0  0  0  0  0  0  0  0  0  0  0
  146.0210  157.8050  133.2780 N   0  0  0  0  0  0  0  0  0  0  0  0
  146.3830  156.4340  133.0530 C   0  0  0  0  0  0  0  0  0  0  0  0
  147.0520  156.1540  132.0200 O   0  0  0  0  0  0  0  0  0  0  0  0
  145.9260  155.3190  133.9200 C   0  0  0  0  0  0  0  0  0  0  0  0
  145.0166  154.7925  133.5947 H   0  0  0  0  0  0  0  0  0  0  0  0
  146.4970  154.8740  135.0640 C   0  0  0  0  0  0  0  0  0  0  0  0
  145.8740  153.7410  135.8000 C   0  0  0  0  0  0  0  0  0  0  0  0
  144.6780  153.4070  135.5830 O   0  0  0  0  0  0  0  0  0  0  0  0
  146.6070  153.0120  136.7290 O   0  0  0  0  0  0  0  0  0  0  0  0
  147.7470  155.4940  135.6370 C   0  0  0  0  0  0  0  0  0  0  0  0
  147.6979  155.4697  136.7356 H   0  0  0  0  0  0  0  0  0  0  0  0
  148.6264  154.9276  135.2966 H   0  0  0  0  0  0  0  0  0  0  0  0
  147.8282  156.5369  135.2966 H   0  0  0  0  0  0  0  0  0  0  0  0
  1  2  1  0
  2  3  1  0
  3  4  2  0
  3  5  1  0
  5  6  2  0
  6  7  1  0
  6  8  1  0
  8  9  2  0
  9 10  1  0
  9 11  1  0
 11 12  1  0
 11 13  2  0
 13 14  1  0
 14 15  1  0
 15 16  1  0
 15 17  1  0
 15 18  1  0
 18 19  1  0
 18 20  1  0
 18 21  1  0
 21 22  1  0
 21 23  1  0
 21 24  1  0
 24 25  1  0
 25 26  1  0
 25 27  1  0
 25 28  1  0
 24 29  1  0
 29 30  1  0
 29 31  1  0
 29 32  1  0
 14 33  1  0
 33 34  1  0
 33 35  1  0
 33 36  1  0
 36 37  1  0
 36 38  1  0
 36 39  1  0
 39 40  1  0
 39 41  1  0
 39 42  1  0
 42 43  1  0
 42 44  1  0
 44 45  1  0
 44 46  1  0
 44 47  1  0
 42 48  1  0
 48 49  1  0
 48 50  1  0
 48 51  1  0
 13 52  1  0
 52 53  1  0
 52 54  2  0
 54 55  1  0
 55 56  1  0
 56 57  2  0
 56 58  1  0
 58 59  1  0
 58 60  2  0
 60 61  1  0
 61 62  2  0
 61 63  1  0
 60 64  1  0
 64 65  1  0
 64 66  1  0
 64 67  1  0
 55  5  1  0
 54  8  1  0
M  CHG  3   2  -1  42   1  63  -1
M  END
>  <UniqueID>  (77) 
76

>  <SMILES>  (77) 
C/C(=C\C(=O)n1c(C([NH-])=O)cc2ccc(N(CCCN(C)C)CCC[NH+](C)C)cc21)C(=O)[O-]

>  <Energy>  (77) 
111.63779659976434

>  <Genealogy>  (77) 
CC(=CC(=O)n1c(C([NH-])=O)cc2ccc(N(CCCN(C)C)CCC[NH+](C)C)cc21)C(=O)[O-] (protonated)
C/C(=C\C(=O)n1c(C([NH-])=O)cc2ccc(N(CCCN(C)C)CCC[NH+](C)C)cc21)C(=O)[O-] (cis-trans isomerization)
C/C(=C\C(=O)n1c(C([NH-])=O)cc2ccc(N(CCCN(C)C)CCC[NH+](C)C)cc21)C(=O)[O-] (3D coordinates assigned)
C/C(=C\C(=O)n1c(C([NH-])=O)cc2ccc(N(CCCN(C)C)CCC[NH+](C)C)cc21)C(=O)[O-] (optimized conformer: 111.63779659976434 kcal/mol)

>  <smiles>  (77) 
CC(=CC(=O)n1c(C(N)=O)cc2ccc(N(CCCN(C)C)CCCN(C)C)cc21)C(=O)O

>  <score_type>  (77) 
oracle

>  <origin>  (77) 
adg

>  <m_score__min__energy>  (77) 
-8.3000000000000007

>  <m_primary>  (77) 
energy

$$$$
78:0
     RDKit          3D

 52 55  0  0  0  0  0  0  0  0999 V2000
  145.1774  154.8070  133.6920 H   0  0  0  0  0  0  0  0  0  0  0  0
  145.9440  154.9430  134.4690 C   0  0  0  0  0  0  0  0  0  0  0  0
  145.8590  154.1470  135.7030 C   0  0  0  0  0  0  0  0  0  0  0  0
  144.7390  153.9590  136.2440 O   0  0  0  0  0  0  0  0  0  0  0  0
  146.9980  153.6000  136.2840 O   0  0  0  0  0  0  0  0  0  0  0  0
  146.9270  155.8280  134.2640 C   0  0  0  0  0  0  0  0  0  0  0  0
  147.6879  155.9643  135.0467 H   0  0  0  0  0  0  0  0  0  0  0  0
  147.0290  156.6280  133.0280 C   0  0  0  0  0  0  0  0  0  0  0  0
  147.2640  156.0360  131.9410 O   0  0  0  0  0  0  0  0  0  0  0  0
  146.8600  158.0560  133.0300 N   0  0  0  0  0  0  0  0  0  0  0  0
  147.7900  159.0150  132.7580 C   0  0  0  0  0  0  0  0  0  0  0  0
  149.1730  158.7760  132.2960 C   0  0  0  0  0  0  0  0  0  0  0  0
  149.9730  159.7450  132.2180 O   0  0  0  0  0  0  0  0  0  0  0  0
  149.6090  157.4760  131.8950 N   0  0  0  0  0  0  0  0  0  0  0  0
  150.6080  157.3190  131.6320 H   0  0  0  0  0  0  0  0  0  0  0  0
  148.9320  156.6950  131.7600 H   0  0  0  0  0  0  0  0  0  0  0  0
  147.2540  160.2840  132.9600 C   0  0  0  0  0  0  0  0  0  0  0  0
  147.7644  161.2507  132.8374 H   0  0  0  0  0  0  0  0  0  0  0  0
  145.9490  160.0720  133.3460 C   0  0  0  0  0  0  0  0  0  0  0  0
  144.9530  160.9830  133.6830 C   0  0  0  0  0  0  0  0  0  0  0  0
  145.1402  162.0664  133.6475 H   0  0  0  0  0  0  0  0  0  0  0  0
  143.7010  160.4770  134.0700 C   0  0  0  0  0  0  0  0  0  0  0  0
  142.8927  161.1732  134.3382 H   0  0  0  0  0  0  0  0  0  0  0  0
  143.4670  159.0790  134.1190 C   0  0  0  0  0  0  0  0  0  0  0  0
  142.1810  158.5750  134.5260 N   0  0  0  0  0  0  0  0  0  0  0  0
  141.2260  158.2110  133.4640 C   0  0  0  0  0  0  0  0  0  0  0  0
  141.7888  157.7524  132.6376 H   0  0  0  0  0  0  0  0  0  0  0  0
  140.7137  159.1392  133.1707 H   0  0  0  0  0  0  0  0  0  0  0  0
  140.1190  157.2150  133.9100 C   0  0  1  0  0  0  0  0  0  0  0  0
  139.6614  156.8644  132.9732 H   0  0  0  0  0  0  0  0  0  0  0  0
  140.6410  156.0190  134.6170 N   0  0  0  0  0  0  0  0  0  0  0  0
  141.4380  155.1360  133.7530 C   0  0  0  0  0  0  0  0  0  0  0  0
  142.0452  154.4633  134.3766 H   0  0  0  0  0  0  0  0  0  0  0  0
  140.7659  154.5402  133.1180 H   0  0  0  0  0  0  0  0  0  0  0  0
  142.0993  155.7438  133.1180 H   0  0  0  0  0  0  0  0  0  0  0  0
  141.3230  156.3070  135.9020 C   0  0  0  0  0  0  0  0  0  0  0  0
  141.0691  155.5156  136.6225 H   0  0  0  0  0  0  0  0  0  0  0  0
  142.4053  156.3415  135.7085 H   0  0  0  0  0  0  0  0  0  0  0  0
  140.9040  157.6730  136.4950 C   0  0  1  0  0  0  0  0  0  0  0  0
  141.1030  157.6542  137.5767 H   0  0  0  0  0  0  0  0  0  0  0  0
  141.7390  158.8340  135.9080 C   0  0  0  0  0  0  0  0  0  0  0  0
  142.6273  158.9829  136.5395 H   0  0  0  0  0  0  0  0  0  0  0  0
  141.0982  159.7279  135.8898 H   0  0  0  0  0  0  0  0  0  0  0  0
  139.4010  157.9000  136.2710 C   0  0  0  0  0  0  0  0  0  0  0  0
  138.8410  157.0953  136.7698 H   0  0  0  0  0  0  0  0  0  0  0  0
  139.1371  158.8826  136.6892 H   0  0  0  0  0  0  0  0  0  0  0  0
  139.0420  157.9040  134.7770 C   0  0  0  0  0  0  0  0  0  0  0  0
  138.0876  157.3741  134.6417 H   0  0  0  0  0  0  0  0  0  0  0  0
  138.9708  158.9526  134.4523 H   0  0  0  0  0  0  0  0  0  0  0  0
  144.5070  158.1860  133.7700 C   0  0  0  0  0  0  0  0  0  0  0  0
  144.3509  157.0978  133.8072 H   0  0  0  0  0  0  0  0  0  0  0  0
  145.7370  158.7190  133.3770 C   0  0  0  0  0  0  0  0  0  0  0  0
  1  2  1  0
  2  3  1  0
  3  4  2  0
  3  5  1  0
  2  6  2  0
  6  7  1  0
  6  8  1  0
  8  9  2  0
  8 10  1  0
 10 11  1  0
 11 12  1  0
 12 13  2  0
 12 14  1  0
 14 15  1  0
 14 16  1  0
 11 17  2  0
 17 18  1  0
 17 19  1  0
 19 20  2  0
 20 21  1  0
 20 22  1  0
 22 23  1  0
 22 24  2  0
 24 25  1  0
 25 26  1  0
 26 27  1  0
 26 28  1  0
 26 29  1  0
 29 30  1  6
 29 31  1  0
 31 32  1  0
 32 33  1  0
 32 34  1  0
 32 35  1  0
 31 36  1  0
 36 37  1  0
 36 38  1  0
 36 39  1  0
 39 40  1  1
 39 41  1  0
 41 42  1  0
 41 43  1  0
 39 44  1  0
 44 45  1  0
 44 46  1  0
 44 47  1  0
 47 48  1  0
 47 49  1  0
 24 50  1  0
 50 51  1  0
 50 52  2  0
 52 10  1  0
 52 19  1  0
 41 25  1  0
 47 29  1  0
M  CHG  1   5  -1
M  END
>  <UniqueID>  (78) 
77

>  <SMILES>  (78) 
CN1C[C@@H]2CC[C@H]1CN(c1ccc3cc(C(N)=O)n(C(=O)/C=C/C(=O)[O-])c3c1)C2

>  <Energy>  (78) 
113.16273258387744

>  <Genealogy>  (78) 
CN1CC2CCC1CN(c1ccc3cc(C(N)=O)n(C(=O)/C=C/C(=O)[O-])c3c1)C2 (protonated)
CN1C[C@@H]2CC[C@H]1CN(c1ccc3cc(C(N)=O)n(C(=O)/C=C/C(=O)[O-])c3c1)C2 (chirality)
CN1C[C@@H]2CC[C@H]1CN(c1ccc3cc(C(N)=O)n(C(=O)/C=C/C(=O)[O-])c3c1)C2 (cis-trans isomerization)
CN1C[C@@H]2CC[C@H]1CN(c1ccc3cc(C(N)=O)n(C(=O)/C=C/C(=O)[O-])c3c1)C2 (3D coordinates assigned)
CN1C[C@@H]2CC[C@H]1CN(c1ccc3cc(C(N)=O)n(C(=O)/C=C/C(=O)[O-])c3c1)C2 (nonaromatic ring conformer: 113.16273258387744 kcal/mol)

>  <smiles>  (78) 
CN1CC2CCC1CN(c1ccc3cc(C(N)=O)n(C(=O)/C=C/C(=O)O)c3c1)C2

>  <score_type>  (78) 
oracle

>  <origin>  (78) 
adg

>  <m_score__min__energy>  (78) 
-8.7300000000000004

>  <m_primary>  (78) 
energy

$$$$
79:0
     RDKit          3D

 45 46  0  0  0  0  0  0  0  0999 V2000
  142.6810  159.8530  133.3750 N   0  0  0  0  0  0  0  0  0  0  0  0
  141.4320  160.1790  134.0590 C   0  0  0  0  0  0  0  0  0  0  0  0
  141.3090  159.3600  135.3490 C   0  0  0  0  0  0  0  0  0  0  0  0
  140.0510  158.4830  135.3690 C   0  0  0  0  0  0  0  0  0  0  0  0
  140.2650  157.1730  134.6580 C   0  0  0  0  0  0  0  0  0  0  0  0
  139.3350  156.7250  133.6860 C   0  0  0  0  0  0  0  0  0  0  0  0
  139.5230  155.4990  133.0240 C   0  0  0  0  0  0  0  0  0  0  0  0
  140.6410  154.7430  133.3600 C   0  0  0  0  0  0  0  0  0  0  0  0
  141.0850  153.5400  132.8570 C   0  0  0  0  0  0  0  0  0  0  0  0
  142.2670  153.2660  133.5430 C   0  0  0  0  0  0  0  0  0  0  0  0
  143.1220  152.0940  133.2590 C   0  0  0  0  0  0  0  0  0  0  0  0
  144.5440  152.1580  133.3630 N   0  0  0  0  0  0  0  0  0  0  0  0
  142.5810  151.0000  132.9440 O   0  0  0  0  0  0  0  0  0  0  0  0
  142.5440  154.2660  134.4240 N   0  0  0  0  0  0  0  0  0  0  0  0
  143.7130  154.4260  135.2420 C   0  0  0  0  0  0  0  0  0  0  0  0
  143.6900  153.9920  136.4250 O   0  0  0  0  0  0  0  0  0  0  0  0
  144.8800  155.1200  134.7450 N   0  0  0  0  0  0  0  0  0  0  0  0
  146.0730  155.2500  135.5950 C   0  0  0  0  0  0  0  0  0  0  0  0
  146.8730  153.9860  135.5660 C   0  0  0  0  0  0  0  0  0  0  0  0
  147.3260  153.4990  136.6360 O   0  0  0  0  0  0  0  0  0  0  0  0
  147.1040  153.3340  134.3610 O   0  0  0  0  0  0  0  0  0  0  0  0
  144.8930  155.6950  133.3900 C   0  0  0  0  0  0  0  0  0  0  0  0
  144.3430  157.0870  133.3920 C   0  0  0  0  0  0  0  0  0  0  0  0
  144.8630  157.9750  134.1160 O   0  0  0  0  0  0  0  0  0  0  0  0
  143.2350  157.3970  132.6150 O   0  0  0  0  0  0  0  0  0  0  0  0
  141.5430  155.1590  134.3030 C   0  0  0  0  0  0  0  0  0  0  0  0
  141.3860  156.3730  134.9750 C   0  0  0  0  0  0  0  0  0  0  0  0
  143.1720  159.1220  133.9390 H   0  0  0  0  0  0  0  0  0  0  0  0
  142.4440  159.4090  132.4560 H   0  0  0  0  0  0  0  0  0  0  0  0
  141.4215  161.2508  134.3061 H   0  0  0  0  0  0  0  0  0  0  0  0
  140.5861  159.9391  133.3980 H   0  0  0  0  0  0  0  0  0  0  0  0
  142.1928  158.7116  135.4410 H   0  0  0  0  0  0  0  0  0  0  0  0
  141.2375  160.0669  136.1887 H   0  0  0  0  0  0  0  0  0  0  0  0
  139.7770  158.2789  136.4146 H   0  0  0  0  0  0  0  0  0  0  0  0
  139.2499  159.0262  134.8464 H   0  0  0  0  0  0  0  0  0  0  0  0
  138.4571  157.3433  133.4473 H   0  0  0  0  0  0  0  0  0  0  0  0
  138.8085  155.1488  132.2644 H   0  0  0  0  0  0  0  0  0  0  0  0
  140.6080  152.9258  132.0790 H   0  0  0  0  0  0  0  0  0  0  0  0
  145.1250  151.3460  133.0580 H   0  0  0  0  0  0  0  0  0  0  0  0
  145.0150  152.9410  133.8630 H   0  0  0  0  0  0  0  0  0  0  0  0
  146.6929  156.0801  135.2254 H   0  0  0  0  0  0  0  0  0  0  0  0
  145.7550  155.4479  136.6293 H   0  0  0  0  0  0  0  0  0  0  0  0
  145.9283  155.7180  133.0190 H   0  0  0  0  0  0  0  0  0  0  0  0
  144.2636  155.0708  132.7387 H   0  0  0  0  0  0  0  0  0  0  0  0
  142.1157  156.6980  135.7312 H   0  0  0  0  0  0  0  0  0  0  0  0
  1  2  1  0
  2  3  1  0
  3  4  1  0
  4  5  1  0
  5  6  2  0
  6  7  1  0
  7  8  2  0
  8  9  1  0
  9 10  2  0
 10 11  1  0
 11 12  1  0
 11 13  2  0
 10 14  1  0
 14 15  1  0
 15 16  2  0
 15 17  1  0
 17 18  1  0
 18 19  1  0
 19 20  2  0
 19 21  1  0
 17 22  1  0
 22 23  1  0
 23 24  2  0
 23 25  1  0
 14 26  1  0
 26 27  2  0
 27  5  1  0
 26  8  1  0
  1 28  1  0
  1 29  1  0
  2 30  1  0
  2 31  1  0
  3 32  1  0
  3 33  1  0
  4 34  1  0
  4 35  1  0
  6 36  1  0
  7 37  1  0
  9 38  1  0
 12 39  1  0
 12 40  1  0
 18 41  1  0
 18 42  1  0
 22 43  1  0
 22 44  1  0
 27 45  1  0
M  CHG  2  21  -1  25  -1
M  END
>  <UniqueID>  (79) 
78

>  <SMILES>  (79) 
NCCCc1ccc2cc(C(N)=O)n(C(=O)N(CC(=O)[O-])CC(=O)[O-])c2c1

>  <Energy>  (79) 
77.56913450026195

>  <Genealogy>  (79) 
NCCCc1ccc2cc(C(N)=O)n(C(=O)N(CC(=O)[O-])CC(=O)[O-])c2c1 (protonated)
NCCCc1ccc2cc(C(N)=O)n(C(=O)N(CC(=O)[O-])CC(=O)[O-])c2c1 (3D coordinates assigned)
NCCCc1ccc2cc(C(N)=O)n(C(=O)N(CC(=O)[O-])CC(=O)[O-])c2c1 (optimized conformer: 77.56913450026195 kcal/mol)

>  <smiles>  (79) 
NCCCc1ccc2cc(C(N)=O)n(C(=O)N(CC(=O)O)CC(=O)O)c2c1

>  <score_type>  (79) 
oracle

>  <origin>  (79) 
adg

>  <m_score__min__energy>  (79) 
-7.0300000000000002

>  <m_primary>  (79) 
energy

$$$$
80:0
     RDKit          3D

 43 44  0  0  0  0  0  0  0  0999 V2000
  139.6340  159.3850  131.3690 C   0  0  0  0  0  0  0  0  0  0  0  0
  138.8290  158.7340  132.4880 C   0  0  0  0  0  0  0  0  0  0  0  0
  139.4210  157.4950  132.8730 O   0  0  0  0  0  0  0  0  0  0  0  0
  139.7120  157.1630  134.2020 C   0  0  0  0  0  0  0  0  0  0  0  0
  139.2310  157.8370  135.1530 O   0  0  0  0  0  0  0  0  0  0  0  0
  140.6250  156.0110  134.4930 C   0  0  0  0  0  0  0  0  0  0  0  0
  141.7990  156.4190  135.3970 C   0  0  0  0  0  0  0  0  0  0  0  0
  143.1430  155.7970  134.9920 C   0  0  0  0  0  0  0  0  0  0  0  0
  143.6260  156.3580  133.7330 N   0  0  0  0  0  0  0  0  0  0  0  0
  143.2250  157.6280  133.2080 C   0  0  0  0  0  0  0  0  0  0  0  0
  142.1320  157.7400  132.5890 O   0  0  0  0  0  0  0  0  0  0  0  0
  144.0420  158.7880  133.4320 N   0  0  0  0  0  0  0  0  0  0  0  0
  143.6340  160.0640  133.6850 C   0  0  0  0  0  0  0  0  0  0  0  0
  142.2490  160.4940  133.9660 C   0  0  0  0  0  0  0  0  0  0  0  0
  141.3100  159.5980  134.5560 N   0  0  0  0  0  0  0  0  0  0  0  0
  141.9040  161.6820  133.7300 O   0  0  0  0  0  0  0  0  0  0  0  0
  144.7260  160.9290  133.7300 C   0  0  0  0  0  0  0  0  0  0  0  0
  145.8270  160.1360  133.5050 C   0  0  0  0  0  0  0  0  0  0  0  0
  147.1740  160.4790  133.4230 C   0  0  0  0  0  0  0  0  0  0  0  0
  148.0970  159.4570  133.1430 C   0  0  0  0  0  0  0  0  0  0  0  0
  147.6610  158.1230  132.9550 C   0  0  0  0  0  0  0  0  0  0  0  0
  148.6510  157.0520  132.6050 C   0  0  0  0  0  0  0  0  0  0  0  0
  146.2850  157.8150  133.0290 C   0  0  0  0  0  0  0  0  0  0  0  0
  145.3890  158.8490  133.3280 C   0  0  0  0  0  0  0  0  0  0  0  0
  140.4195  160.0203  131.8042 H   0  0  0  0  0  0  0  0  0  0  0  0
  140.0964  158.6039  130.7477 H   0  0  0  0  0  0  0  0  0  0  0  0
  138.9669  160.0006  130.7477 H   0  0  0  0  0  0  0  0  0  0  0  0
  138.8046  159.4089  133.3563 H   0  0  0  0  0  0  0  0  0  0  0  0
  137.8075  158.5435  132.1272 H   0  0  0  0  0  0  0  0  0  0  0  0
  140.0489  155.2197  134.9950 H   0  0  0  0  0  0  0  0  0  0  0  0
  141.0397  155.6572  133.5376 H   0  0  0  0  0  0  0  0  0  0  0  0
  141.8994  157.5138  135.3609 H   0  0  0  0  0  0  0  0  0  0  0  0
  141.5676  156.0486  136.4066 H   0  0  0  0  0  0  0  0  0  0  0  0
  143.8830  155.9963  135.7811 H   0  0  0  0  0  0  0  0  0  0  0  0
  143.0001  154.7144  134.8592 H   0  0  0  0  0  0  0  0  0  0  0  0
  140.8440  158.8570  133.9870 H   0  0  0  0  0  0  0  0  0  0  0  0
  144.7105  162.0145  133.9076 H   0  0  0  0  0  0  0  0  0  0  0  0
  147.5052  161.5172  133.5727 H   0  0  0  0  0  0  0  0  0  0  0  0
  149.1683  159.6956  133.0692 H   0  0  0  0  0  0  0  0  0  0  0  0
  149.0573  156.6125  133.5279 H   0  0  0  0  0  0  0  0  0  0  0  0
  148.1514  156.2694  132.0152 H   0  0  0  0  0  0  0  0  0  0  0  0
  149.4704  157.4887  132.0152 H   0  0  0  0  0  0  0  0  0  0  0  0
  145.9261  156.7896  132.8563 H   0  0  0  0  0  0  0  0  0  0  0  0
  1  2  1  0
  2  3  1  0
  3  4  1  0
  4  5  2  0
  4  6  1  0
  6  7  1  0
  7  8  1  0
  8  9  1  0
  9 10  1  0
 10 11  2  0
 10 12  1  0
 12 13  1  0
 13 14  1  0
 14 15  1  0
 14 16  2  0
 13 17  2  0
 17 18  1  0
 18 19  2  0
 19 20  1  0
 20 21  2  0
 21 22  1  0
 21 23  1  0
 23 24  2  0
 24 12  1  0
 24 18  1  0
  1 25  1  0
  1 26  1  0
  1 27  1  0
  2 28  1  0
  2 29  1  0
  6 30  1  0
  6 31  1  0
  7 32  1  0
  7 33  1  0
  8 34  1  0
  8 35  1  0
 15 36  1  0
 17 37  1  0
 19 38  1  0
 20 39  1  0
 22 40  1  0
 22 41  1  0
 22 42  1  0
 23 43  1  0
M  CHG  2   9  -1  15  -1
M  END
>  <UniqueID>  (80) 
79

>  <SMILES>  (80) 
CCOC(=O)CCC[N-]C(=O)n1c(C([NH-])=O)cc2ccc(C)cc21

>  <Energy>  (80) 
71.86013222091378

>  <Genealogy>  (80) 
CCOC(=O)CCC[N-]C(=O)n1c(C([NH-])=O)cc2ccc(C)cc21 (protonated)
CCOC(=O)CCC[N-]C(=O)n1c(C([NH-])=O)cc2ccc(C)cc21 (3D coordinates assigned)
CCOC(=O)CCC[N-]C(=O)n1c(C([NH-])=O)cc2ccc(C)cc21 (optimized conformer: 71.86013222091378 kcal/mol)

>  <smiles>  (80) 
CCOC(=O)CCCNC(=O)n1c(C(N)=O)cc2ccc(C)cc21

>  <score_type>  (80) 
oracle

>  <origin>  (80) 
adg

>  <m_score__min__energy>  (80) 
-7.3300000000000001

>  <m_primary>  (80) 
energy

$$$$
81:0
     RDKit          3D

 43 46  0  0  0  0  0  0  0  0999 V2000
  138.5340  158.3230  131.7910 N   0  0  0  0  0  0  0  0  0  0  0  0
  139.8210  158.7030  132.2710 C   0  0  0  0  0  0  0  0  0  0  0  0
  140.5900  159.3610  131.5200 O   0  0  0  0  0  0  0  0  0  0  0  0
  140.2400  158.3890  133.6520 C   0  0  0  0  0  0  0  0  0  0  0  0
  140.6080  159.3600  134.5800 C   0  0  0  0  0  0  0  0  0  0  0  0
  140.8350  158.6760  135.7520 C   0  0  0  0  0  0  0  0  0  0  0  0
  141.2540  159.1450  136.9920 C   0  0  0  0  0  0  0  0  0  0  0  0
  141.4500  158.2070  138.0200 C   0  0  0  0  0  0  0  0  0  0  0  0
  141.2130  156.8270  137.7980 C   0  0  0  0  0  0  0  0  0  0  0  0
  141.4860  155.8280  138.8930 C   0  0  0  0  0  0  0  0  0  0  0  0
  142.0480  156.4540  139.9910 F   0  0  0  0  0  0  0  0  0  0  0  0
  142.3630  154.8680  138.4240 F   0  0  0  0  0  0  0  0  0  0  0  0
  140.3140  155.2120  139.3000 F   0  0  0  0  0  0  0  0  0  0  0  0
  140.8110  156.3870  136.5140 C   0  0  0  0  0  0  0  0  0  0  0  0
  140.6100  157.3450  135.5130 C   0  0  0  0  0  0  0  0  0  0  0  0
  140.2480  157.1510  134.2230 N   0  0  0  0  0  0  0  0  0  0  0  0
  140.0600  155.8850  133.5720 C   0  0  0  0  0  0  0  0  0  0  0  0
  139.0900  155.7220  132.7820 O   0  0  0  0  0  0  0  0  0  0  0  0
  140.9400  154.8290  133.8410 O   0  0  0  0  0  0  0  0  0  0  0  0
  141.1200  153.7110  132.9740 C   0  0  0  0  0  0  0  0  0  0  0  0
  141.3870  152.4370  133.7810 C   0  0  0  0  0  0  0  0  0  0  0  0
  141.1400  151.2330  132.9780 N   0  0  0  0  0  0  0  0  0  0  0  0
  142.0740  150.2170  132.9590 C   0  0  0  0  0  0  0  0  0  0  0  0
  141.8570  149.0500  132.2040 C   0  0  0  0  0  0  0  0  0  0  0  0
  140.6660  148.9720  131.4940 C   0  0  0  0  0  0  0  0  0  0  0  0
  140.2330  147.9700  130.7160 N   0  0  0  0  0  0  0  0  0  0  0  0
  139.0230  148.4250  130.2980 C   0  0  0  0  0  0  0  0  0  0  0  0
  138.6870  149.6530  130.7750 N   0  0  0  0  0  0  0  0  0  0  0  0
  139.7510  149.9680  131.5270 C   0  0  0  0  0  0  0  0  0  0  0  0
  139.9680  151.1220  132.2690 C   0  0  0  0  0  0  0  0  0  0  0  0
  138.0200  157.5190  132.2130 H   0  0  0  0  0  0  0  0  0  0  0  0
  140.6980  160.4433  134.4118 H   0  0  0  0  0  0  0  0  0  0  0  0
  141.4268  160.2178  137.1632 H   0  0  0  0  0  0  0  0  0  0  0  0
  141.7914  158.5476  139.0087 H   0  0  0  0  0  0  0  0  0  0  0  0
  140.6600  155.3172  136.3075 H   0  0  0  0  0  0  0  0  0  0  0  0
  140.2109  153.5722  132.3705 H   0  0  0  0  0  0  0  0  0  0  0  0
  141.9850  153.9045  132.3226 H   0  0  0  0  0  0  0  0  0  0  0  0
  142.4357  152.4368  134.1131 H   0  0  0  0  0  0  0  0  0  0  0  0
  140.7045  152.4240  134.6436 H   0  0  0  0  0  0  0  0  0  0  0  0
  143.0008  150.3212  133.5422 H   0  0  0  0  0  0  0  0  0  0  0  0
  142.5969  148.2364  132.1772 H   0  0  0  0  0  0  0  0  0  0  0  0
  138.3688  147.8472  129.6285 H   0  0  0  0  0  0  0  0  0  0  0  0
  139.2195  151.9279  132.2886 H   0  0  0  0  0  0  0  0  0  0  0  0
  1  2  1  0
  2  3  2  0
  2  4  1  0
  4  5  2  0
  5  6  1  0
  6  7  2  0
  7  8  1  0
  8  9  2  0
  9 10  1  0
 10 11  1  0
 10 12  1  0
 10 13  1  0
  9 14  1  0
 14 15  2  0
 15 16  1  0
 16 17  1  0
 17 18  2  0
 17 19  1  0
 19 20  1  0
 20 21  1  0
 21 22  1  0
 22 23  2  0
 23 24  1  0
 24 25  2  0
 25 26  1  0
 26 27  2  0
 27 28  1  0
 28 29  1  0
 29 30  2  0
 16  4  1  0
 30 22  1  0
 15  6  1  0
 29 25  1  0
  1 31  1  0
  5 32  1  0
  7 33  1  0
  8 34  1  0
 14 35  1  0
 20 36  1  0
 20 37  1  0
 21 38  1  0
 21 39  1  0
 23 40  1  0
 24 41  1  0
 27 42  1  0
 30 43  1  0
M  CHG  3   1  -1  22   1  28  -1
M  END
>  <UniqueID>  (81) 
80

>  <SMILES>  (81) 
[NH-]C(=O)c1cc2ccc(C(F)(F)F)cc2n1C(=O)OCC[n+]1ccc2nc[n-]c2c1

>  <Energy>  (81) 
117.04503348481937

>  <Genealogy>  (81) 
[NH-]C(=O)c1cc2ccc(C(F)(F)F)cc2n1C(=O)OCC[n+]1ccc2nc[n-]c2c1 (protonated)
[NH-]C(=O)c1cc2ccc(C(F)(F)F)cc2n1C(=O)OCC[n+]1ccc2nc[n-]c2c1 (3D coordinates assigned)
[NH-]C(=O)c1cc2ccc(C(F)(F)F)cc2n1C(=O)OCC[n+]1ccc2nc[n-]c2c1 (optimized conformer: 117.04503348481937 kcal/mol)

>  <smiles>  (81) 
NC(=O)c1cc2ccc(C(F)(F)F)cc2n1C(=O)OCC[n+]1ccc2nc[nH]c2c1

>  <score_type>  (81) 
oracle

>  <origin>  (81) 
adg

>  <m_score__min__energy>  (81) 
-7.3300000000000001

>  <m_primary>  (81) 
energy

$$$$
82:0
     RDKit          3D

 38 39  0  0  0  0  0  0  0  0999 V2000
  148.4080  154.9686  134.2664 H   0  0  0  0  0  0  0  0  0  0  0  0
  147.5760  155.0880  134.9760 C   0  0  0  0  0  0  0  0  0  0  0  0
  147.6470  154.4000  136.2750 C   0  0  0  0  0  0  0  0  0  0  0  0
  148.4900  154.7390  137.1470 O   0  0  0  0  0  0  0  0  0  0  0  0
  146.7650  153.3620  136.5460 O   0  0  0  0  0  0  0  0  0  0  0  0
  146.5350  155.8540  134.6270 C   0  0  0  0  0  0  0  0  0  0  0  0
  145.7081  155.9799  135.3414 H   0  0  0  0  0  0  0  0  0  0  0  0
  146.4540  156.5360  133.3210 C   0  0  0  0  0  0  0  0  0  0  0  0
  146.5300  155.8440  132.2700 O   0  0  0  0  0  0  0  0  0  0  0  0
  146.2890  157.9610  133.2170 N   0  0  0  0  0  0  0  0  0  0  0  0
  147.2570  158.8870  132.9750 C   0  0  0  0  0  0  0  0  0  0  0  0
  148.6570  158.5930  132.6030 C   0  0  0  0  0  0  0  0  0  0  0  0
  149.5630  159.4130  132.9110 O   0  0  0  0  0  0  0  0  0  0  0  0
  148.9990  157.4240  131.8580 N   0  0  0  0  0  0  0  0  0  0  0  0
  150.0000  157.2060  131.6570 H   0  0  0  0  0  0  0  0  0  0  0  0
  148.2650  156.8270  131.4180 H   0  0  0  0  0  0  0  0  0  0  0  0
  146.7500  160.1760  133.1170 C   0  0  0  0  0  0  0  0  0  0  0  0
  147.2911  161.1246  132.9856 H   0  0  0  0  0  0  0  0  0  0  0  0
  145.4270  160.0090  133.4570 C   0  0  0  0  0  0  0  0  0  0  0  0
  144.4460  160.9570  133.7340 C   0  0  0  0  0  0  0  0  0  0  0  0
  144.6640  162.0335  133.6744 H   0  0  0  0  0  0  0  0  0  0  0  0
  143.1690  160.4950  134.0920 C   0  0  0  0  0  0  0  0  0  0  0  0
  142.3707  161.2222  134.3017 H   0  0  0  0  0  0  0  0  0  0  0  0
  142.8900  159.1070  134.1880 C   0  0  0  0  0  0  0  0  0  0  0  0
  141.5540  158.6920  134.5450 N   0  0  0  0  0  0  0  0  0  0  0  0
  141.3250  158.6350  135.5640 H   0  0  0  0  0  0  0  0  0  0  0  0
  140.4750  158.3090  133.6220 C   0  0  1  0  0  0  0  0  0  0  0  0
  140.7752  157.3949  133.0888 H   0  0  0  0  0  0  0  0  0  0  0  0
  139.2140  157.9500  134.3660 C   0  0  0  0  0  0  0  0  0  0  0  0
  138.2030  157.5190  133.7500 O   0  0  0  0  0  0  0  0  0  0  0  0
  139.1850  158.0200  135.7530 O   0  0  0  0  0  0  0  0  0  0  0  0
  140.2670  159.3890  132.5500 C   0  0  0  0  0  0  0  0  0  0  0  0
  140.0804  160.3576  133.0368 H   0  0  0  0  0  0  0  0  0  0  0  0
  141.1677  159.4613  131.9227 H   0  0  0  0  0  0  0  0  0  0  0  0
  139.4039  159.1216  131.9227 H   0  0  0  0  0  0  0  0  0  0  0  0
  143.9230  158.1790  133.9070 C   0  0  0  0  0  0  0  0  0  0  0  0
  143.7426  157.0971  133.9901 H   0  0  0  0  0  0  0  0  0  0  0  0
  145.1760  158.6650  133.5220 C   0  0  0  0  0  0  0  0  0  0  0  0
  1  2  1  0
  2  3  1  0
  3  4  2  0
  3  5  1  0
  2  6  2  0
  6  7  1  0
  6  8  1  0
  8  9  2  0
  8 10  1  0
 10 11  1  0
 11 12  1  0
 12 13  2  0
 12 14  1  0
 14 15  1  0
 14 16  1  0
 11 17  2  0
 17 18  1  0
 17 19  1  0
 19 20  2  0
 20 21  1  0
 20 22  1  0
 22 23  1  0
 22 24  2  0
 24 25  1  0
 25 26  1  0
 25 27  1  0
 27 28  1  6
 27 29  1  0
 29 30  2  0
 29 31  1  0
 27 32  1  0
 32 33  1  0
 32 34  1  0
 32 35  1  0
 24 36  1  0
 36 37  1  0
 36 38  2  0
 38 10  1  0
 38 19  1  0
M  CHG  2   5  -1  31  -1
M  END
>  <UniqueID>  (82) 
81

>  <SMILES>  (82) 
C[C@@H](Nc1ccc2cc(C(N)=O)n(C(=O)/C=C/C(=O)[O-])c2c1)C(=O)[O-]

>  <Energy>  (82) 
76.87481811465227

>  <Genealogy>  (82) 
CC(Nc1ccc2cc(C(N)=O)n(C(=O)C=CC(=O)[O-])c2c1)C(=O)[O-] (protonated)
C[C@@H](Nc1ccc2cc(C(N)=O)n(C(=O)C=CC(=O)[O-])c2c1)C(=O)[O-] (chirality)
C[C@@H](Nc1ccc2cc(C(N)=O)n(C(=O)/C=C/C(=O)[O-])c2c1)C(=O)[O-] (cis-trans isomerization)
C[C@@H](Nc1ccc2cc(C(N)=O)n(C(=O)/C=C/C(=O)[O-])c2c1)C(=O)[O-] (3D coordinates assigned)
C[C@@H](Nc1ccc2cc(C(N)=O)n(C(=O)/C=C/C(=O)[O-])c2c1)C(=O)[O-] (optimized conformer: 76.87481811465227 kcal/mol)

>  <smiles>  (82) 
CC(Nc1ccc2cc(C(N)=O)n(C(=O)C=CC(=O)O)c2c1)C(=O)O

>  <score_type>  (82) 
oracle

>  <origin>  (82) 
adg

>  <m_score__min__energy>  (82) 
-7.6200000000000001

>  <m_primary>  (82) 
energy

$$$$
83:0
     RDKit          3D

 36 37  0  0  0  0  0  0  0  0999 V2000
  143.2950  161.5300  133.7280 N   0  0  0  0  0  0  0  0  0  0  0  0
  144.7010  161.5670  133.9620 C   0  0  0  0  0  0  0  0  0  0  0  0
  145.2080  162.5820  134.5110 O   0  0  0  0  0  0  0  0  0  0  0  0
  145.5600  160.4130  133.6240 C   0  0  0  0  0  0  0  0  0  0  0  0
  146.9380  160.5120  133.4480 C   0  0  0  0  0  0  0  0  0  0  0  0
  147.3740  159.2230  133.2480 C   0  0  0  0  0  0  0  0  0  0  0  0
  148.6570  158.7380  133.0070 C   0  0  0  0  0  0  0  0  0  0  0  0
  148.8130  157.3570  132.8050 C   0  0  0  0  0  0  0  0  0  0  0  0
  147.6930  156.4910  132.8520 C   0  0  0  0  0  0  0  0  0  0  0  0
  147.8650  155.0250  132.5850 C   0  0  0  0  0  0  0  0  0  0  0  0
  149.2130  154.7170  132.5530 F   0  0  0  0  0  0  0  0  0  0  0  0
  146.4040  157.0190  133.0820 C   0  0  0  0  0  0  0  0  0  0  0  0
  146.2800  158.3970  133.2990 C   0  0  0  0  0  0  0  0  0  0  0  0
  145.1570  159.1140  133.5250 N   0  0  0  0  0  0  0  0  0  0  0  0
  143.8170  158.6000  133.5650 C   0  0  0  0  0  0  0  0  0  0  0  0
  143.3760  157.9100  132.6060 O   0  0  0  0  0  0  0  0  0  0  0  0
  143.0150  158.8450  134.6830 O   0  0  0  0  0  0  0  0  0  0  0  0
  142.0580  157.9080  135.1670 C   0  0  0  0  0  0  0  0  0  0  0  0
  140.9020  157.7720  134.1720 C   0  0  0  0  0  0  0  0  0  0  0  0
  140.4760  159.1120  133.5440 C   0  0  0  0  0  0  0  0  0  0  0  0
  141.3470  159.5170  132.4400 N   0  0  0  0  0  0  0  0  0  0  0  0
  142.7870  160.6220  133.6560 H   0  0  0  0  0  0  0  0  0  0  0  0
  147.5482  161.4270  133.4653 H   0  0  0  0  0  0  0  0  0  0  0  0
  149.5224  159.4163  132.9758 H   0  0  0  0  0  0  0  0  0  0  0  0
  149.8135  156.9442  132.6086 H   0  0  0  0  0  0  0  0  0  0  0  0
  147.3758  154.4471  133.3830 H   0  0  0  0  0  0  0  0  0  0  0  0
  147.4083  154.7727  131.6166 H   0  0  0  0  0  0  0  0  0  0  0  0
  145.5197  156.3648  133.0905 H   0  0  0  0  0  0  0  0  0  0  0  0
  142.5420  156.9289  135.2979 H   0  0  0  0  0  0  0  0  0  0  0  0
  141.6630  158.2631  136.1303 H   0  0  0  0  0  0  0  0  0  0  0  0
  141.2141  157.0923  133.3654 H   0  0  0  0  0  0  0  0  0  0  0  0
  140.0367  157.3847  134.7299 H   0  0  0  0  0  0  0  0  0  0  0  0
  139.4485  159.0124  133.1641 H   0  0  0  0  0  0  0  0  0  0  0  0
  140.5462  159.8837  134.3248 H   0  0  0  0  0  0  0  0  0  0  0  0
  142.2740  159.8100  132.8240 H   0  0  0  0  0  0  0  0  0  0  0  0
  141.5010  158.7030  131.8020 H   0  0  0  0  0  0  0  0  0  0  0  0
  1  2  1  0
  2  3  2  0
  2  4  1  0
  4  5  2  0
  5  6  1  0
  6  7  2  0
  7  8  1  0
  8  9  2  0
  9 10  1  0
 10 11  1  0
  9 12  1  0
 12 13  2  0
 13 14  1  0
 14 15  1  0
 15 16  2  0
 15 17  1  0
 17 18  1  0
 18 19  1  0
 19 20  1  0
 20 21  1  0
 14  4  1  0
 13  6  1  0
  1 22  1  0
  5 23  1  0
  7 24  1  0
  8 25  1  0
 10 26  1  0
 10 27  1  0
 12 28  1  0
 18 29  1  0
 18 30  1  0
 19 31  1  0
 19 32  1  0
 20 33  1  0
 20 34  1  0
 21 35  1  0
 21 36  1  0
M  CHG  1   1  -1
M  END
>  <UniqueID>  (83) 
82

>  <SMILES>  (83) 
[NH-]C(=O)c1cc2ccc(CF)cc2n1C(=O)OCCCN

>  <Energy>  (83) 
68.37691354195347

>  <Genealogy>  (83) 
[NH-]C(=O)c1cc2ccc(CF)cc2n1C(=O)OCCCN (protonated)
[NH-]C(=O)c1cc2ccc(CF)cc2n1C(=O)OCCCN (3D coordinates assigned)
[NH-]C(=O)c1cc2ccc(CF)cc2n1C(=O)OCCCN (optimized conformer: 68.37691354195347 kcal/mol)

>  <smiles>  (83) 
NCCCOC(=O)n1c(C(N)=O)cc2ccc(CF)cc21

>  <score_type>  (83) 
oracle

>  <origin>  (83) 
adg

>  <m_score__min__energy>  (83) 
-6.04

>  <m_primary>  (83) 
energy

$$$$
84:0
     RDKit          3D

 38 39  0  0  0  0  0  0  0  0999 V2000
  139.1840  157.1560  133.5880 C   0  0  0  0  0  0  0  0  0  0  0  0
  139.7280  157.9200  134.5410 C   0  0  0  0  0  0  0  0  0  0  0  0
  139.5940  157.5230  135.9870 C   0  0  0  0  0  0  0  0  0  0  0  0
  140.5340  159.1080  134.1820 C   0  0  0  0  0  0  0  0  0  0  0  0
  140.5730  159.4990  132.9820 O   0  0  0  0  0  0  0  0  0  0  0  0
  141.2540  159.7960  135.1660 O   0  0  0  0  0  0  0  0  0  0  0  0
  142.4900  159.3250  135.6940 C   0  0  0  0  0  0  0  0  0  0  0  0
  142.9770  158.2360  134.9130 O   0  0  0  0  0  0  0  0  0  0  0  0
  143.5870  158.4140  133.6660 C   0  0  0  0  0  0  0  0  0  0  0  0
  142.9670  158.1240  132.6060 O   0  0  0  0  0  0  0  0  0  0  0  0
  144.9080  158.9710  133.5910 N   0  0  0  0  0  0  0  0  0  0  0  0
  145.2550  160.2880  133.5330 C   0  0  0  0  0  0  0  0  0  0  0  0
  144.3450  161.4310  133.7390 C   0  0  0  0  0  0  0  0  0  0  0  0
  142.9380  161.2840  133.5620 N   0  0  0  0  0  0  0  0  0  0  0  0
  144.8070  162.5360  134.1280 O   0  0  0  0  0  0  0  0  0  0  0  0
  146.6280  160.4240  133.3470 C   0  0  0  0  0  0  0  0  0  0  0  0
  147.1190  159.1390  133.2980 C   0  0  0  0  0  0  0  0  0  0  0  0
  148.4230  158.6850  133.1290 C   0  0  0  0  0  0  0  0  0  0  0  0
  148.6380  157.2970  133.0960 C   0  0  0  0  0  0  0  0  0  0  0  0
  147.5510  156.3910  133.2060 C   0  0  0  0  0  0  0  0  0  0  0  0
  147.8000  154.9040  133.2060 C   0  0  0  0  0  0  0  0  0  0  0  0
  146.7470  154.2320  132.6090 F   0  0  0  0  0  0  0  0  0  0  0  0
  147.9320  154.4660  134.5110 F   0  0  0  0  0  0  0  0  0  0  0  0
  148.9560  154.6010  132.5100 F   0  0  0  0  0  0  0  0  0  0  0  0
  146.2430  156.8930  133.4000 C   0  0  0  0  0  0  0  0  0  0  0  0
  146.0620  158.2810  133.4470 C   0  0  0  0  0  0  0  0  0  0  0  0
  139.2804  157.4437  132.5307 H   0  0  0  0  0  0  0  0  0  0  0  0
  138.6401  156.2398  133.8613 H   0  0  0  0  0  0  0  0  0  0  0  0
  139.8799  158.3701  136.6278 H   0  0  0  0  0  0  0  0  0  0  0  0
  138.5511  157.2416  136.1949 H   0  0  0  0  0  0  0  0  0  0  0  0
  140.2531  156.6672  136.1949 H   0  0  0  0  0  0  0  0  0  0  0  0
  143.2267  160.1417  135.6776 H   0  0  0  0  0  0  0  0  0  0  0  0
  142.3313  158.9825  136.7272 H   0  0  0  0  0  0  0  0  0  0  0  0
  142.5040  160.3380  133.4780 H   0  0  0  0  0  0  0  0  0  0  0  0
  147.1993  161.3598  133.2581 H   0  0  0  0  0  0  0  0  0  0  0  0
  149.2600  159.3910  133.0244 H   0  0  0  0  0  0  0  0  0  0  0  0
  149.6607  156.9079  132.9836 H   0  0  0  0  0  0  0  0  0  0  0  0
  145.3883  156.2096  133.5113 H   0  0  0  0  0  0  0  0  0  0  0  0
  1  2  2  0
  2  3  1  0
  2  4  1  0
  4  5  2  0
  4  6  1  0
  6  7  1  0
  7  8  1  0
  8  9  1  0
  9 10  2  0
  9 11  1  0
 11 12  1  0
 12 13  1  0
 13 14  1  0
 13 15  2  0
 12 16  2  0
 16 17  1  0
 17 18  2  0
 18 19  1  0
 19 20  2  0
 20 21  1  0
 21 22  1  0
 21 23  1  0
 21 24  1  0
 20 25  1  0
 25 26  2  0
 26 11  1  0
 26 17  1  0
  1 27  1  0
  1 28  1  0
  3 29  1  0
  3 30  1  0
  3 31  1  0
  7 32  1  0
  7 33  1  0
 14 34  1  0
 16 35  1  0
 18 36  1  0
 19 37  1  0
 25 38  1  0
M  CHG  1  14  -1
M  END
>  <UniqueID>  (84) 
83

>  <SMILES>  (84) 
C=C(C)C(=O)OCOC(=O)n1c(C([NH-])=O)cc2ccc(C(F)(F)F)cc21

>  <Energy>  (84) 
72.81505401849245

>  <Genealogy>  (84) 
C=C(C)C(=O)OCOC(=O)n1c(C([NH-])=O)cc2ccc(C(F)(F)F)cc21 (protonated)
C=C(C)C(=O)OCOC(=O)n1c(C([NH-])=O)cc2ccc(C(F)(F)F)cc21 (3D coordinates assigned)
C=C(C)C(=O)OCOC(=O)n1c(C([NH-])=O)cc2ccc(C(F)(F)F)cc21 (optimized conformer: 72.81505401849245 kcal/mol)

>  <smiles>  (84) 
C=C(C)C(=O)OCOC(=O)n1c(C(N)=O)cc2ccc(C(F)(F)F)cc21

>  <score_type>  (84) 
oracle

>  <origin>  (84) 
adg

>  <m_score__min__energy>  (84) 
-6.3399999999999999

>  <m_primary>  (84) 
energy

$$$$
85:0
     RDKit          3D

 40 42  0  0  0  0  0  0  0  0999 V2000
  149.2400  160.4570  129.9180 C   0  0  0  0  0  0  0  0  0  0  0  0
  149.5960  160.1980  131.1780 C   0  0  0  0  0  0  0  0  0  0  0  0
  149.1870  158.9240  131.8610 C   0  0  0  0  0  0  0  0  0  0  0  0
  148.1820  159.1780  132.8410 O   0  0  0  0  0  0  0  0  0  0  0  0
  147.7310  158.2120  133.7480 C   0  0  0  0  0  0  0  0  0  0  0  0
  148.4280  157.9130  134.7570 O   0  0  0  0  0  0  0  0  0  0  0  0
  146.4760  157.5510  133.5220 N   0  0  0  0  0  0  0  0  0  0  0  0
  145.2280  158.0980  133.5540 C   0  0  0  0  0  0  0  0  0  0  0  0
  144.9250  159.5400  133.6880 C   0  0  0  0  0  0  0  0  0  0  0  0
  145.6960  160.5160  132.9840 N   0  0  0  0  0  0  0  0  0  0  0  0
  144.0000  159.9250  134.4510 O   0  0  0  0  0  0  0  0  0  0  0  0
  144.2600  157.1170  133.3420 C   0  0  0  0  0  0  0  0  0  0  0  0
  144.9590  155.9440  133.1760 C   0  0  0  0  0  0  0  0  0  0  0  0
  144.4960  154.6510  132.9430 C   0  0  0  0  0  0  0  0  0  0  0  0
  145.4460  153.6210  132.8370 C   0  0  0  0  0  0  0  0  0  0  0  0
  146.8270  153.9010  132.9710 C   0  0  0  0  0  0  0  0  0  0  0  0
  147.7820  152.8440  132.8730 N   0  0  0  0  0  0  0  0  0  0  0  0
  149.1520  152.5670  133.3470 C   0  0  0  0  0  0  0  0  0  0  0  0
  149.2610  151.2110  132.7190 C   0  0  0  0  0  0  0  0  0  0  0  0
  149.3310  150.1530  133.6490 O   0  0  0  0  0  0  0  0  0  0  0  0
  147.8740  151.5130  132.2410 C   0  0  0  0  0  0  0  0  0  0  0  0
  147.2610  155.2220  133.2050 C   0  0  0  0  0  0  0  0  0  0  0  0
  146.2950  156.2310  133.2890 C   0  0  0  0  0  0  0  0  0  0  0  0
  149.5523  161.3974  129.4405 H   0  0  0  0  0  0  0  0  0  0  0  0
  148.6343  159.7300  129.3571 H   0  0  0  0  0  0  0  0  0  0  0  0
  150.2018  160.9331  131.7281 H   0  0  0  0  0  0  0  0  0  0  0  0
  148.7913  158.2231  131.1112 H   0  0  0  0  0  0  0  0  0  0  0  0
  150.0668  158.4919  132.3602 H   0  0  0  0  0  0  0  0  0  0  0  0
  145.4990  161.5330  133.1160 H   0  0  0  0  0  0  0  0  0  0  0  0
  146.4340  160.2360  132.3020 H   0  0  0  0  0  0  0  0  0  0  0  0
  143.1687  157.2524  133.3135 H   0  0  0  0  0  0  0  0  0  0  0  0
  143.4203  154.4428  132.8450 H   0  0  0  0  0  0  0  0  0  0  0  0
  145.1139  152.5894  132.6485 H   0  0  0  0  0  0  0  0  0  0  0  0
  149.8910  153.2795  132.9518 H   0  0  0  0  0  0  0  0  0  0  0  0
  149.3328  152.6356  134.4299 H   0  0  0  0  0  0  0  0  0  0  0  0
  150.0852  150.9014  132.0595 H   0  0  0  0  0  0  0  0  0  0  0  0
  148.4790  150.1090  134.1590 H   0  0  0  0  0  0  0  0  0  0  0  0
  147.8022  151.5570  131.1442 H   0  0  0  0  0  0  0  0  0  0  0  0
  147.0876  150.7842  132.4870 H   0  0  0  0  0  0  0  0  0  0  0  0
  148.3304  155.4533  133.3185 H   0  0  0  0  0  0  0  0  0  0  0  0
  1  2  2  0
  2  3  1  0
  3  4  1  0
  4  5  1  0
  5  6  2  0
  5  7  1  0
  7  8  1  0
  8  9  1  0
  9 10  1  0
  9 11  2  0
  8 12  2  0
 12 13  1  0
 13 14  2  0
 14 15  1  0
 15 16  2  0
 16 17  1  0
 17 18  1  0
 18 19  1  0
 19 20  1  0
 19 21  1  0
 16 22  1  0
 22 23  2  0
 23  7  1  0
 23 13  1  0
 21 17  1  0
  1 24  1  0
  1 25  1  0
  2 26  1  0
  3 27  1  0
  3 28  1  0
 10 29  1  0
 10 30  1  0
 12 31  1  0
 14 32  1  0
 15 33  1  0
 18 34  1  0
 18 35  1  0
 19 36  1  0
 20 37  1  0
 21 38  1  0
 21 39  1  0
 22 40  1  0
M  END
>  <UniqueID>  (85) 
84

>  <SMILES>  (85) 
C=CCOC(=O)n1c(C(N)=O)cc2ccc(N3CC(O)C3)cc21

>  <Energy>  (85) 
121.86577825344436

>  <Genealogy>  (85) 
C=CCOC(=O)n1c(C(N)=O)cc2ccc(N3CC(O)C3)cc21 (3D coordinates assigned)
C=CCOC(=O)n1c(C(N)=O)cc2ccc(N3CC(O)C3)cc21 (nonaromatic ring conformer: 121.86577825344436 kcal/mol)

>  <smiles>  (85) 
C=CCOC(=O)n1c(C(N)=O)cc2ccc(N3CC(O)C3)cc21

>  <score_type>  (85) 
oracle

>  <origin>  (85) 
adg

>  <m_score__min__energy>  (85) 
-7.2000000000000002

>  <m_primary>  (85) 
energy

$$$$
86:0
     RDKit          3D

 36 37  0  0  0  0  0  0  0  0999 V2000
  149.2180  157.2750  132.5950 C   0  0  0  0  0  0  0  0  0  0  0  0
  148.1030  158.2210  132.9270 C   0  0  0  0  0  0  0  0  0  0  0  0
  148.3700  159.6020  133.0990 C   0  0  0  0  0  0  0  0  0  0  0  0
  147.3270  160.5050  133.3650 C   0  0  0  0  0  0  0  0  0  0  0  0
  146.0320  160.0000  133.4470 C   0  0  0  0  0  0  0  0  0  0  0  0
  144.8370  160.6510  133.6600 C   0  0  0  0  0  0  0  0  0  0  0  0
  143.8620  159.6550  133.6130 C   0  0  0  0  0  0  0  0  0  0  0  0
  142.4200  159.9020  133.8230 C   0  0  0  0  0  0  0  0  0  0  0  0
  141.4780  159.4960  132.8340 N   0  0  0  0  0  0  0  0  0  0  0  0
  142.0110  160.4810  134.8650 O   0  0  0  0  0  0  0  0  0  0  0  0
  144.4340  158.4410  133.3850 N   0  0  0  0  0  0  0  0  0  0  0  0
  143.7690  157.1800  133.2170 C   0  0  0  0  0  0  0  0  0  0  0  0
  143.0120  157.0190  132.2240 O   0  0  0  0  0  0  0  0  0  0  0  0
  143.9880  156.0870  134.1970 C   0  0  0  0  0  0  0  0  0  0  0  0
  143.3340  156.1190  135.2750 O   0  0  0  0  0  0  0  0  0  0  0  0
  144.9130  154.9970  133.9660 N   0  0  0  0  0  0  0  0  0  0  0  0
  145.4850  154.7440  132.6390 C   0  0  0  0  0  0  0  0  0  0  0  0
  145.1610  154.0230  135.0370 C   0  0  0  0  0  0  0  0  0  0  0  0
  146.5010  154.2640  135.6580 C   0  0  0  0  0  0  0  0  0  0  0  0
  146.9930  153.4170  136.4490 O   0  0  0  0  0  0  0  0  0  0  0  0
  147.1890  155.4420  135.3950 O   0  0  0  0  0  0  0  0  0  0  0  0
  145.7600  158.6680  133.2810 C   0  0  0  0  0  0  0  0  0  0  0  0
  146.7750  157.7480  132.9990 C   0  0  0  0  0  0  0  0  0  0  0  0
  149.6658  156.8951  133.5252 H   0  0  0  0  0  0  0  0  0  0  0  0
  148.8221  156.4331  132.0081 H   0  0  0  0  0  0  0  0  0  0  0  0
  149.9842  157.8028  132.0081 H   0  0  0  0  0  0  0  0  0  0  0  0
  149.4037  159.9705  133.0235 H   0  0  0  0  0  0  0  0  0  0  0  0
  147.5272  161.5776  133.5042 H   0  0  0  0  0  0  0  0  0  0  0  0
  144.6843  161.7269  133.8307 H   0  0  0  0  0  0  0  0  0  0  0  0
  141.7480  158.8270  132.0780 H   0  0  0  0  0  0  0  0  0  0  0  0
  146.4859  154.3013  132.7495 H   0  0  0  0  0  0  0  0  0  0  0  0
  144.8357  154.0491  132.0863 H   0  0  0  0  0  0  0  0  0  0  0  0
  145.5623  155.6919  132.0863 H   0  0  0  0  0  0  0  0  0  0  0  0
  144.3812  154.1232  135.8063 H   0  0  0  0  0  0  0  0  0  0  0  0
  145.1414  153.0093  134.6104 H   0  0  0  0  0  0  0  0  0  0  0  0
  146.5446  156.6846  132.8377 H   0  0  0  0  0  0  0  0  0  0  0  0
  1  2  1  0
  2  3  2  0
  3  4  1  0
  4  5  2  0
  5  6  1  0
  6  7  2  0
  7  8  1  0
  8  9  1  0
  8 10  2  0
  7 11  1  0
 11 12  1  0
 12 13  2  0
 12 14  1  0
 14 15  2  0
 14 16  1  0
 16 17  1  0
 16 18  1  0
 18 19  1  0
 19 20  2  0
 19 21  1  0
 11 22  1  0
 22 23  2  0
 23  2  1  0
 22  5  1  0
  1 24  1  0
  1 25  1  0
  1 26  1  0
  3 27  1  0
  4 28  1  0
  6 29  1  0
  9 30  1  0
 17 31  1  0
 17 32  1  0
 17 33  1  0
 18 34  1  0
 18 35  1  0
 23 36  1  0
M  CHG  2   9  -1  21  -1
M  END
>  <UniqueID>  (86) 
85

>  <SMILES>  (86) 
Cc1ccc2cc(C([NH-])=O)n(C(=O)C(=O)N(C)CC(=O)[O-])c2c1

>  <Energy>  (86) 
74.97225083618818

>  <Genealogy>  (86) 
Cc1ccc2cc(C([NH-])=O)n(C(=O)C(=O)N(C)CC(=O)[O-])c2c1 (protonated)
Cc1ccc2cc(C([NH-])=O)n(C(=O)C(=O)N(C)CC(=O)[O-])c2c1 (3D coordinates assigned)
Cc1ccc2cc(C([NH-])=O)n(C(=O)C(=O)N(C)CC(=O)[O-])c2c1 (optimized conformer: 74.97225083618818 kcal/mol)

>  <smiles>  (86) 
Cc1ccc2cc(C(N)=O)n(C(=O)C(=O)N(C)CC(=O)O)c2c1

>  <score_type>  (86) 
oracle

>  <origin>  (86) 
adg

>  <m_score__min__energy>  (86) 
-6.6299999999999999

>  <m_primary>  (86) 
energy

$$$$
87:0
     RDKit          3D

 35 36  0  0  0  0  0  0  0  0999 V2000
  145.9060  161.4260  133.2480 H   0  0  0  0  0  0  0  0  0  0  0  0
  145.1880  161.1560  133.9580 N   0  0  0  0  0  0  0  0  0  0  0  0
  144.3190  160.0490  133.7370 C   0  0  0  0  0  0  0  0  0  0  0  0
  143.0720  160.2340  133.7320 O   0  0  0  0  0  0  0  0  0  0  0  0
  144.8570  158.6830  133.5760 C   0  0  0  0  0  0  0  0  0  0  0  0
  144.1540  157.5370  133.9410 C   0  0  0  0  0  0  0  0  0  0  0  0
  143.1180  157.4779  134.3059 H   0  0  0  0  0  0  0  0  0  0  0  0
  145.0310  156.4950  133.7480 C   0  0  0  0  0  0  0  0  0  0  0  0
  144.8590  155.1320  133.9510 C   0  0  0  0  0  0  0  0  0  0  0  0
  143.9107  154.7329  134.3402 H   0  0  0  0  0  0  0  0  0  0  0  0
  145.9310  154.2780  133.6450 C   0  0  0  0  0  0  0  0  0  0  0  0
  145.8210  153.1948  133.8020 H   0  0  0  0  0  0  0  0  0  0  0  0
  147.1580  154.7900  133.1350 C   0  0  0  0  0  0  0  0  0  0  0  0
  148.2570  153.8970  132.8110 N   0  0  0  0  0  0  0  0  0  0  0  0
  149.6060  154.4270  132.5830 C   0  0  0  0  0  0  0  0  0  0  0  0
  150.0931  154.6184  133.5505 H   0  0  0  0  0  0  0  0  0  0  0  0
  150.1966  153.6940  132.0138 H   0  0  0  0  0  0  0  0  0  0  0  0
  149.5397  155.3659  132.0138 H   0  0  0  0  0  0  0  0  0  0  0  0
  148.0350  152.4500  132.7070 C   0  0  0  0  0  0  0  0  0  0  0  0
  147.9684  152.0158  133.7155 H   0  0  0  0  0  0  0  0  0  0  0  0
  147.0974  152.2610  132.1638 H   0  0  0  0  0  0  0  0  0  0  0  0
  148.8729  151.9886  132.1638 H   0  0  0  0  0  0  0  0  0  0  0  0
  147.2850  156.1910  132.9460 C   0  0  0  0  0  0  0  0  0  0  0  0
  148.2163  156.6201  132.5479 H   0  0  0  0  0  0  0  0  0  0  0  0
  146.2050  157.0160  133.2750 C   0  0  0  0  0  0  0  0  0  0  0  0
  146.1110  158.3590  133.1470 N   0  0  0  0  0  0  0  0  0  0  0  0
  147.1300  159.2350  132.6310 C   0  0  0  0  0  0  0  0  0  0  0  0
  146.8160  160.1140  131.7850 O   0  0  0  0  0  0  0  0  0  0  0  0
  148.5530  159.0990  133.0080 C   0  0  0  0  0  0  0  0  0  0  0  0
  148.7694  158.7374  134.0241 H   0  0  0  0  0  0  0  0  0  0  0  0
  149.6040  159.3770  132.2220 C   0  0  0  0  0  0  0  0  0  0  0  0
  150.5941  159.4034  132.7006 H   0  0  0  0  0  0  0  0  0  0  0  0
  149.5510  159.6500  130.7760 C   0  0  0  0  0  0  0  0  0  0  0  0
  149.9820  160.7330  130.3000 O   0  0  0  0  0  0  0  0  0  0  0  0
  148.9320  158.7360  129.9340 O   0  0  0  0  0  0  0  0  0  0  0  0
  1  2  1  0
  2  3  1  0
  3  4  2  0
  3  5  1  0
  5  6  2  0
  6  7  1  0
  6  8  1  0
  8  9  2  0
  9 10  1  0
  9 11  1  0
 11 12  1  0
 11 13  2  0
 13 14  1  0
 14 15  1  0
 15 16  1  0
 15 17  1  0
 15 18  1  0
 14 19  1  0
 19 20  1  0
 19 21  1  0
 19 22  1  0
 13 23  1  0
 23 24  1  0
 23 25  2  0
 25 26  1  0
 26 27  1  0
 27 28  2  0
 27 29  1  0
 29 30  1  0
 29 31  2  0
 31 32  1  0
 31 33  1  0
 33 34  2  0
 33 35  1  0
 26  5  1  0
 25  8  1  0
M  CHG  2   2  -1  35  -1
M  END
>  <UniqueID>  (87) 
86

>  <SMILES>  (87) 
CN(C)c1ccc2cc(C([NH-])=O)n(C(=O)/C=C\C(=O)[O-])c2c1

>  <Energy>  (87) 
82.12309997712792

>  <Genealogy>  (87) 
CN(C)c1ccc2cc(C([NH-])=O)n(C(=O)/C=C\C(=O)[O-])c2c1 (protonated)
CN(C)c1ccc2cc(C([NH-])=O)n(C(=O)/C=C\C(=O)[O-])c2c1 (cis-trans isomerization)
CN(C)c1ccc2cc(C([NH-])=O)n(C(=O)/C=C\C(=O)[O-])c2c1 (3D coordinates assigned)
CN(C)c1ccc2cc(C([NH-])=O)n(C(=O)/C=C\C(=O)[O-])c2c1 (optimized conformer: 82.12309997712792 kcal/mol)

>  <smiles>  (87) 
CN(C)c1ccc2cc(C(N)=O)n(C(=O)/C=C\C(=O)O)c2c1

>  <score_type>  (87) 
oracle

>  <origin>  (87) 
adg

>  <m_score__min__energy>  (87) 
-6.5800000000000001

>  <m_primary>  (87) 
energy

$$$$
88:0
     RDKit          3D

 33 34  0  0  0  0  0  0  0  0999 V2000
  148.5430  154.0790  132.6210 C   0  0  0  0  0  0  0  0  0  0  0  0
  148.2310  155.2350  132.7550 C   0  0  0  0  0  0  0  0  0  0  0  0
  147.8580  156.6170  132.9150 C   0  0  0  0  0  0  0  0  0  0  0  0
  148.8520  157.6220  132.8810 C   0  0  0  0  0  0  0  0  0  0  0  0
  148.5030  158.9730  133.0480 C   0  0  0  0  0  0  0  0  0  0  0  0
  147.1590  159.2800  133.2420 C   0  0  0  0  0  0  0  0  0  0  0  0
  146.5500  160.4970  133.4520 C   0  0  0  0  0  0  0  0  0  0  0  0
  145.1930  160.2130  133.5910 C   0  0  0  0  0  0  0  0  0  0  0  0
  144.1420  161.2430  133.7380 C   0  0  0  0  0  0  0  0  0  0  0  0
  142.7590  160.8890  133.6780 N   0  0  0  0  0  0  0  0  0  0  0  0
  144.4590  162.4440  133.9460 O   0  0  0  0  0  0  0  0  0  0  0  0
  144.9720  158.8720  133.4740 N   0  0  0  0  0  0  0  0  0  0  0  0
  143.7230  158.1790  133.6280 C   0  0  0  0  0  0  0  0  0  0  0  0
  143.0230  157.9160  132.6130 O   0  0  0  0  0  0  0  0  0  0  0  0
  143.3120  157.7770  134.9060 O   0  0  0  0  0  0  0  0  0  0  0  0
  142.0450  158.0160  135.4560 C   0  0  0  0  0  0  0  0  0  0  0  0
  141.7110  157.5110  136.5610 O   0  0  0  0  0  0  0  0  0  0  0  0
  141.1070  158.8360  134.7560 N   0  0  0  0  0  0  0  0  0  0  0  0
  140.1470  158.3060  133.7960 C   0  0  0  0  0  0  0  0  0  0  0  0
  139.8750  159.3040  132.7140 C   0  0  0  0  0  0  0  0  0  0  0  0
  139.1120  159.0080  131.7580 O   0  0  0  0  0  0  0  0  0  0  0  0
  140.5050  160.5430  132.7330 O   0  0  0  0  0  0  0  0  0  0  0  0
  146.1840  158.3160  133.2590 C   0  0  0  0  0  0  0  0  0  0  0  0
  146.5060  156.9600  133.1120 C   0  0  0  0  0  0  0  0  0  0  0  0
  148.8278  153.0236  132.4987 H   0  0  0  0  0  0  0  0  0  0  0  0
  149.9047  157.3447  132.7229 H   0  0  0  0  0  0  0  0  0  0  0  0
  149.2679  159.7633  133.0261 H   0  0  0  0  0  0  0  0  0  0  0  0
  147.0326  161.4843  133.4999 H   0  0  0  0  0  0  0  0  0  0  0  0
  142.4570  159.9170  133.4520 H   0  0  0  0  0  0  0  0  0  0  0  0
  142.0260  161.6190  133.8180 H   0  0  0  0  0  0  0  0  0  0  0  0
  140.5546  157.3884  133.3468 H   0  0  0  0  0  0  0  0  0  0  0  0
  139.2053  158.0880  134.3211 H   0  0  0  0  0  0  0  0  0  0  0  0
  145.7255  156.1858  133.1494 H   0  0  0  0  0  0  0  0  0  0  0  0
  1  2  3  0
  2  3  1  0
  3  4  2  0
  4  5  1  0
  5  6  2  0
  6  7  1  0
  7  8  2  0
  8  9  1  0
  9 10  1  0
  9 11  2  0
  8 12  1  0
 12 13  1  0
 13 14  2  0
 13 15  1  0
 15 16  1  0
 16 17  2  0
 16 18  1  0
 18 19  1  0
 19 20  1  0
 20 21  2  0
 20 22  1  0
 12 23  1  0
 23 24  2  0
 24  3  1  0
 23  6  1  0
  1 25  1  0
  4 26  1  0
  5 27  1  0
  7 28  1  0
 10 29  1  0
 10 30  1  0
 19 31  1  0
 19 32  1  0
 24 33  1  0
M  CHG  2  18  -1  22  -1
M  END
>  <UniqueID>  (88) 
87

>  <SMILES>  (88) 
C#Cc1ccc2cc(C(N)=O)n(C(=O)OC(=O)[N-]CC(=O)[O-])c2c1

>  <Energy>  (88) 
67.09088953029399

>  <Genealogy>  (88) 
C#Cc1ccc2cc(C(N)=O)n(C(=O)OC(=O)[N-]CC(=O)[O-])c2c1 (protonated)
C#Cc1ccc2cc(C(N)=O)n(C(=O)OC(=O)[N-]CC(=O)[O-])c2c1 (3D coordinates assigned)
C#Cc1ccc2cc(C(N)=O)n(C(=O)OC(=O)[N-]CC(=O)[O-])c2c1 (optimized conformer: 67.09088953029399 kcal/mol)

>  <smiles>  (88) 
C#Cc1ccc2cc(C(N)=O)n(C(=O)OC(=O)NCC(=O)O)c2c1

>  <score_type>  (88) 
oracle

>  <origin>  (88) 
adg

>  <m_score__min__energy>  (88) 
-6.9199999999999999

>  <m_primary>  (88) 
energy

$$$$
89:0
     RDKit          3D

 32 33  0  0  0  0  0  0  0  0999 V2000
  148.3940  154.8960  132.6010 C   0  0  0  0  0  0  0  0  0  0  0  0
  147.9540  156.3190  132.7800 C   0  0  0  0  0  0  0  0  0  0  0  0
  148.8800  157.3760  132.6010 C   0  0  0  0  0  0  0  0  0  0  0  0
  148.4740  158.7140  132.7430 C   0  0  0  0  0  0  0  0  0  0  0  0
  147.1380  158.9620  133.0420 C   0  0  0  0  0  0  0  0  0  0  0  0
  146.4850  160.1540  133.2560 C   0  0  0  0  0  0  0  0  0  0  0  0
  145.1620  159.8080  133.5210 C   0  0  0  0  0  0  0  0  0  0  0  0
  144.0890  160.8020  133.7300 C   0  0  0  0  0  0  0  0  0  0  0  0
  142.7410  160.5140  133.3640 N   0  0  0  0  0  0  0  0  0  0  0  0
  144.3710  161.9390  134.1930 O   0  0  0  0  0  0  0  0  0  0  0  0
  145.0030  158.4550  133.4800 N   0  0  0  0  0  0  0  0  0  0  0  0
  143.8230  157.7000  133.7950 C   0  0  0  0  0  0  0  0  0  0  0  0
  143.8410  156.8760  134.7500 O   0  0  0  0  0  0  0  0  0  0  0  0
  142.6540  157.8980  133.0510 O   0  0  0  0  0  0  0  0  0  0  0  0
  141.3700  157.4350  133.4660 C   0  0  0  0  0  0  0  0  0  0  0  0
  140.2560  158.2550  132.8140 C   0  0  0  0  0  0  0  0  0  0  0  0
  140.7710  159.0520  131.7820 O   0  0  0  0  0  0  0  0  0  0  0  0
  146.2210  157.9510  133.1840 C   0  0  0  0  0  0  0  0  0  0  0  0
  146.6020  156.6080  133.0670 C   0  0  0  0  0  0  0  0  0  0  0  0
  148.5381  154.4300  133.5869 H   0  0  0  0  0  0  0  0  0  0  0  0
  147.6252  154.3420  132.0424 H   0  0  0  0  0  0  0  0  0  0  0  0
  149.3413  154.8726  132.0424 H   0  0  0  0  0  0  0  0  0  0  0  0
  149.9260  157.1475  132.3486 H   0  0  0  0  0  0  0  0  0  0  0  0
  149.1905  159.5398  132.6215 H   0  0  0  0  0  0  0  0  0  0  0  0
  146.9162  161.1655  133.2245 H   0  0  0  0  0  0  0  0  0  0  0  0
  142.5230  159.9860  132.4900 H   0  0  0  0  0  0  0  0  0  0  0  0
  141.2569  156.3799  133.1764 H   0  0  0  0  0  0  0  0  0  0  0  0
  141.2934  157.5446  134.5578 H   0  0  0  0  0  0  0  0  0  0  0  0
  139.4990  157.5724  132.4005 H   0  0  0  0  0  0  0  0  0  0  0  0
  139.8036  158.9079  133.5750 H   0  0  0  0  0  0  0  0  0  0  0  0
  141.7340  159.1910  131.9820 H   0  0  0  0  0  0  0  0  0  0  0  0
  145.8671  155.7997  133.1954 H   0  0  0  0  0  0  0  0  0  0  0  0
  1  2  1  0
  2  3  2  0
  3  4  1  0
  4  5  2  0
  5  6  1  0
  6  7  2  0
  7  8  1  0
  8  9  1  0
  8 10  2  0
  7 11  1  0
 11 12  1  0
 12 13  2  0
 12 14  1  0
 14 15  1  0
 15 16  1  0
 16 17  1  0
 11 18  1  0
 18 19  2  0
 19  2  1  0
 18  5  1  0
  1 20  1  0
  1 21  1  0
  1 22  1  0
  3 23  1  0
  4 24  1  0
  6 25  1  0
  9 26  1  0
 15 27  1  0
 15 28  1  0
 16 29  1  0
 16 30  1  0
 17 31  1  0
 19 32  1  0
M  CHG  1   9  -1
M  END
>  <UniqueID>  (89) 
88

>  <SMILES>  (89) 
Cc1ccc2cc(C([NH-])=O)n(C(=O)OCCO)c2c1

>  <Energy>  (89) 
67.11149843865516

>  <Genealogy>  (89) 
Cc1ccc2cc(C([NH-])=O)n(C(=O)OCCO)c2c1 (protonated)
Cc1ccc2cc(C([NH-])=O)n(C(=O)OCCO)c2c1 (3D coordinates assigned)
Cc1ccc2cc(C([NH-])=O)n(C(=O)OCCO)c2c1 (optimized conformer: 67.11149843865516 kcal/mol)

>  <smiles>  (89) 
Cc1ccc2cc(C(N)=O)n(C(=O)OCCO)c2c1

>  <score_type>  (89) 
oracle

>  <origin>  (89) 
adg

>  <m_score__min__energy>  (89) 
-5.4900000000000002

>  <m_primary>  (89) 
energy

$$$$
90:0
     RDKit          3D

 38 39  0  0  0  0  0  0  0  0999 V2000
  149.2480  159.7820  129.8660 C   0  0  0  0  0  0  0  0  0  0  0  0
  148.8540  160.5810  131.4520 S   0  0  0  0  0  0  0  0  0  0  0  0
  148.1050  159.1080  132.1360 C   0  0  0  0  0  0  0  0  0  0  0  0
  148.3460  157.9890  131.6110 O   0  0  0  0  0  0  0  0  0  0  0  0
  147.2700  159.2190  133.2520 O   0  0  0  0  0  0  0  0  0  0  0  0
  146.0750  159.9940  133.2700 C   0  0  0  0  0  0  0  0  0  0  0  0
  145.0000  159.2490  132.7030 O   0  0  0  0  0  0  0  0  0  0  0  0
  143.7850  159.0090  133.3540 C   0  0  0  0  0  0  0  0  0  0  0  0
  143.1580  159.9510  133.9100 O   0  0  0  0  0  0  0  0  0  0  0  0
  143.2550  157.6750  133.3990 N   0  0  0  0  0  0  0  0  0  0  0  0
  143.9230  156.5210  133.6780 C   0  0  0  0  0  0  0  0  0  0  0  0
  145.3860  156.3780  133.8240 C   0  0  0  0  0  0  0  0  0  0  0  0
  146.2590  156.6090  132.7220 N   0  0  0  0  0  0  0  0  0  0  0  0
  145.8690  156.0040  134.9250 O   0  0  0  0  0  0  0  0  0  0  0  0
  143.0370  155.4450  133.7330 C   0  0  0  0  0  0  0  0  0  0  0  0
  141.7960  155.9810  133.4720 C   0  0  0  0  0  0  0  0  0  0  0  0
  140.5490  155.3660  133.4110 C   0  0  0  0  0  0  0  0  0  0  0  0
  139.4290  156.1720  133.1520 C   0  0  0  0  0  0  0  0  0  0  0  0
  139.5720  157.5720  132.9760 C   0  0  0  0  0  0  0  0  0  0  0  0
  138.3680  158.4210  132.6790 C   0  0  0  0  0  0  0  0  0  0  0  0
  138.7940  159.7180  131.4780 P   0  0  0  0  0  0  0  0  0  0  0  0
  139.6150  159.1270  130.3560 O   0  0  0  0  0  0  0  0  0  0  0  0
  139.6900  160.9240  132.2520 O   0  0  0  0  0  0  0  0  0  0  0  0
  137.3780  160.3930  130.8440 O   0  0  0  0  0  0  0  0  0  0  0  0
  140.8550  158.1600  133.0360 C   0  0  0  0  0  0  0  0  0  0  0  0
  141.9550  157.3290  133.2760 C   0  0  0  0  0  0  0  0  0  0  0  0
  149.7273  158.8100  130.0542 H   0  0  0  0  0  0  0  0  0  0  0  0
  148.3219  159.6292  129.2924 H   0  0  0  0  0  0  0  0  0  0  0  0
  149.9330  160.4237  129.2924 H   0  0  0  0  0  0  0  0  0  0  0  0
  145.8274  160.2569  134.3090 H   0  0  0  0  0  0  0  0  0  0  0  0
  146.2301  160.9090  132.6795 H   0  0  0  0  0  0  0  0  0  0  0  0
  146.2910  157.5380  132.2460 H   0  0  0  0  0  0  0  0  0  0  0  0
  143.2785  154.3921  133.9407 H   0  0  0  0  0  0  0  0  0  0  0  0
  140.4441  154.2814  133.5611 H   0  0  0  0  0  0  0  0  0  0  0  0
  138.4314  155.7134  133.0849 H   0  0  0  0  0  0  0  0  0  0  0  0
  137.5709  157.7878  132.2623 H   0  0  0  0  0  0  0  0  0  0  0  0
  138.0240  158.8939  133.6107 H   0  0  0  0  0  0  0  0  0  0  0  0
  140.9860  159.2434  132.8976 H   0  0  0  0  0  0  0  0  0  0  0  0
  1  2  1  0
  2  3  1  0
  3  4  2  0
  3  5  1  0
  5  6  1  0
  6  7  1  0
  7  8  1  0
  8  9  2  0
  8 10  1  0
 10 11  1  0
 11 12  1  0
 12 13  1  0
 12 14  2  0
 11 15  2  0
 15 16  1  0
 16 17  2  0
 17 18  1  0
 18 19  2  0
 19 20  1  0
 20 21  1  0
 21 22  2  0
 21 23  1  0
 21 24  1  0
 19 25  1  0
 25 26  2  0
 26 10  1  0
 26 16  1  0
  1 27  1  0
  1 28  1  0
  1 29  1  0
  6 30  1  0
  6 31  1  0
 13 32  1  0
 15 33  1  0
 17 34  1  0
 18 35  1  0
 20 36  1  0
 20 37  1  0
 25 38  1  0
M  CHG  3  13  -1  23  -1  24  -1
M  END
>  <UniqueID>  (90) 
89

>  <SMILES>  (90) 
CSC(=O)OCOC(=O)n1c(C([NH-])=O)cc2ccc(CP(=O)([O-])[O-])cc21

>  <Energy>  (90) 
67.54822069528497

>  <Genealogy>  (90) 
CSC(=O)OCOC(=O)n1c(C([NH-])=O)cc2ccc(CP(=O)([O-])[O-])cc21 (protonated)
CSC(=O)OCOC(=O)n1c(C([NH-])=O)cc2ccc(CP(=O)([O-])[O-])cc21 (3D coordinates assigned)
CSC(=O)OCOC(=O)n1c(C([NH-])=O)cc2ccc(CP(=O)([O-])[O-])cc21 (optimized conformer: 67.54822069528497 kcal/mol)

>  <smiles>  (90) 
CSC(=O)OCOC(=O)n1c(C(N)=O)cc2ccc(CP(=O)(O)O)cc21

>  <score_type>  (90) 
oracle

>  <origin>  (90) 
adg

>  <m_score__min__energy>  (90) 
-6.3499999999999996

>  <m_primary>  (90) 
energy

$$$$
91:0
     RDKit          3D

 37 38  0  0  0  0  0  0  0  0999 V2000
  149.5950  157.5040  132.2400 C   0  0  0  0  0  0  0  0  0  0  0  0
  148.4110  158.3580  132.5840 C   0  0  0  0  0  0  0  0  0  0  0  0
  148.5850  159.7390  132.8450 C   0  0  0  0  0  0  0  0  0  0  0  0
  147.4910  160.5390  133.2150 C   0  0  0  0  0  0  0  0  0  0  0  0
  146.2430  159.9300  133.3200 C   0  0  0  0  0  0  0  0  0  0  0  0
  145.0310  160.4610  133.6930 C   0  0  0  0  0  0  0  0  0  0  0  0
  144.1310  159.3980  133.6480 C   0  0  0  0  0  0  0  0  0  0  0  0
  142.6870  159.5460  133.9260 C   0  0  0  0  0  0  0  0  0  0  0  0
  141.7070  159.0900  132.9990 N   0  0  0  0  0  0  0  0  0  0  0  0
  142.3130  160.1240  134.9820 O   0  0  0  0  0  0  0  0  0  0  0  0
  144.7640  158.2510  133.2630 N   0  0  0  0  0  0  0  0  0  0  0  0
  144.2150  156.9230  133.1870 C   0  0  0  0  0  0  0  0  0  0  0  0
  143.2870  156.6820  132.3680 O   0  0  0  0  0  0  0  0  0  0  0  0
  144.6460  155.8890  134.0930 N   0  0  0  0  0  0  0  0  0  0  0  0
  143.6640  155.3770  135.0510 C   0  0  0  0  0  0  0  0  0  0  0  0
  145.8280  155.0510  133.8050 C   0  0  2  0  0  0  0  0  0  0  0  0
  145.4640  153.6720  133.2430 C   0  0  0  0  0  0  0  0  0  0  0  0
  146.6780  154.9080  135.0350 C   0  0  0  0  0  0  0  0  0  0  0  0
  147.4950  155.8140  135.3480 O   0  0  0  0  0  0  0  0  0  0  0  0
  146.5790  153.7720  135.8290 O   0  0  0  0  0  0  0  0  0  0  0  0
  146.0580  158.5950  133.0710 C   0  0  0  0  0  0  0  0  0  0  0  0
  147.1350  157.7710  132.7190 C   0  0  0  0  0  0  0  0  0  0  0  0
  150.0774  157.1561  133.1654 H   0  0  0  0  0  0  0  0  0  0  0  0
  149.2626  156.6364  131.6512 H   0  0  0  0  0  0  0  0  0  0  0  0
  150.3134  158.0932  131.6512 H   0  0  0  0  0  0  0  0  0  0  0  0
  149.5849  160.1890  132.7573 H   0  0  0  0  0  0  0  0  0  0  0  0
  147.6163  161.6133  133.4156 H   0  0  0  0  0  0  0  0  0  0  0  0
  144.8170  161.5042  133.9686 H   0  0  0  0  0  0  0  0  0  0  0  0
  141.9710  158.4780  132.1950 H   0  0  0  0  0  0  0  0  0  0  0  0
  144.0197  155.5625  136.0752 H   0  0  0  0  0  0  0  0  0  0  0  0
  142.7021  155.8883  134.8987 H   0  0  0  0  0  0  0  0  0  0  0  0
  143.5325  154.2956  134.8987 H   0  0  0  0  0  0  0  0  0  0  0  0
  146.3995  155.5690  133.0207 H   0  0  0  0  0  0  0  0  0  0  0  0
  145.2799  152.9745  134.0735 H   0  0  0  0  0  0  0  0  0  0  0  0
  144.5571  153.7552  132.6261 H   0  0  0  0  0  0  0  0  0  0  0  0
  146.2939  153.2967  132.6261 H   0  0  0  0  0  0  0  0  0  0  0  0
  146.9895  156.6935  132.5521 H   0  0  0  0  0  0  0  0  0  0  0  0
  1  2  1  0
  2  3  2  0
  3  4  1  0
  4  5  2  0
  5  6  1  0
  6  7  2  0
  7  8  1  0
  8  9  1  0
  8 10  2  0
  7 11  1  0
 11 12  1  0
 12 13  2  0
 12 14  1  0
 14 15  1  0
 14 16  1  0
 16 17  1  0
 16 18  1  0
 18 19  2  0
 18 20  1  0
 11 21  1  0
 21 22  2  0
 22  2  1  0
 21  5  1  0
  1 23  1  0
  1 24  1  0
  1 25  1  0
  3 26  1  0
  4 27  1  0
  6 28  1  0
  9 29  1  0
 15 30  1  0
 15 31  1  0
 15 32  1  0
 16 33  1  6
 17 34  1  0
 17 35  1  0
 17 36  1  0
 22 37  1  0
M  CHG  2   9  -1  20  -1
M  END
>  <UniqueID>  (91) 
90

>  <SMILES>  (91) 
Cc1ccc2cc(C([NH-])=O)n(C(=O)N(C)[C@H](C)C(=O)[O-])c2c1

>  <Energy>  (91) 
77.11952418701041

>  <Genealogy>  (91) 
Cc1ccc2cc(C([NH-])=O)n(C(=O)N(C)C(C)C(=O)[O-])c2c1 (protonated)
Cc1ccc2cc(C([NH-])=O)n(C(=O)N(C)[C@H](C)C(=O)[O-])c2c1 (chirality)
Cc1ccc2cc(C([NH-])=O)n(C(=O)N(C)[C@H](C)C(=O)[O-])c2c1 (3D coordinates assigned)
Cc1ccc2cc(C([NH-])=O)n(C(=O)N(C)[C@H](C)C(=O)[O-])c2c1 (optimized conformer: 77.11952418701041 kcal/mol)

>  <smiles>  (91) 
Cc1ccc2cc(C(N)=O)n(C(=O)N(C)C(C)C(=O)O)c2c1

>  <score_type>  (91) 
oracle

>  <origin>  (91) 
adg

>  <m_score__min__energy>  (91) 
-6.4000000000000004

>  <m_primary>  (91) 
energy

$$$$
92:0
     RDKit          3D

 49 51  0  0  0  0  0  0  0  0999 V2000
  140.9860  158.0420  136.9550 C   0  0  0  0  0  0  0  0  0  0  0  0
  141.1850  158.9620  135.7830 C   0  0  0  0  0  0  0  0  0  0  0  0
  140.9910  160.1580  135.9490 O   0  0  0  0  0  0  0  0  0  0  0  0
  141.5940  158.4370  134.4880 N   0  0  2  0  0  0  0  0  0  0  0  0
  140.4670  157.9190  133.6700 C   0  0  0  0  0  0  0  0  0  0  0  0
  139.7670  158.9370  132.8100 C   0  0  0  0  0  0  0  0  0  0  0  0
  138.7000  158.6590  132.2010 O   0  0  0  0  0  0  0  0  0  0  0  0
  140.2350  160.2450  132.7950 O   0  0  0  0  0  0  0  0  0  0  0  0
  142.7920  157.5550  134.5120 C   0  0  0  0  0  0  0  0  0  0  0  0
  143.6620  157.5880  133.2680 C   0  0  0  0  0  0  0  0  0  0  0  0
  143.2950  156.9650  132.2370 O   0  0  0  0  0  0  0  0  0  0  0  0
  144.9270  158.2810  133.2560 N   0  0  0  0  0  0  0  0  0  0  0  0
  145.1590  159.6220  133.3540 C   0  0  0  0  0  0  0  0  0  0  0  0
  144.1710  160.6480  133.7430 C   0  0  0  0  0  0  0  0  0  0  0  0
  142.8040  160.5220  133.3610 N   0  0  0  0  0  0  0  0  0  0  0  0
  144.5240  161.6130  134.4710 O   0  0  0  0  0  0  0  0  0  0  0  0
  146.5170  159.8990  133.2180 C   0  0  0  0  0  0  0  0  0  0  0  0
  147.1240  158.6750  133.0760 C   0  0  0  0  0  0  0  0  0  0  0  0
  148.4700  158.3560  132.9440 C   0  0  0  0  0  0  0  0  0  0  0  0
  148.8220  157.0010  132.8410 C   0  0  0  0  0  0  0  0  0  0  0  0
  147.8300  155.9830  132.8830 C   0  0  0  0  0  0  0  0  0  0  0  0
  148.2000  154.5890  132.7670 N   0  0  0  0  0  0  0  0  0  0  0  0
  149.5370  154.1290  132.4230 C   0  0  0  0  0  0  0  0  0  0  0  0
  149.5150  152.6170  132.5960 C   0  0  0  0  0  0  0  0  0  0  0  0
  148.0440  152.2240  132.6070 C   0  0  0  0  0  0  0  0  0  0  0  0
  147.2820  153.4830  132.9940 C   0  0  0  0  0  0  0  0  0  0  0  0
  146.4720  156.3550  133.0340 C   0  0  0  0  0  0  0  0  0  0  0  0
  146.1490  157.7140  133.1180 C   0  0  0  0  0  0  0  0  0  0  0  0
  141.1084  158.6079  137.8903 H   0  0  0  0  0  0  0  0  0  0  0  0
  139.9741  157.6123  136.9162 H   0  0  0  0  0  0  0  0  0  0  0  0
  141.7298  157.2326  136.9162 H   0  0  0  0  0  0  0  0  0  0  0  0
  141.9270  159.2820  133.9660 H   0  0  0  0  0  0  0  0  0  0  0  0
  140.8612  157.1320  133.0102 H   0  0  0  0  0  0  0  0  0  0  0  0
  139.7136  157.5613  134.3872 H   0  0  0  0  0  0  0  0  0  0  0  0
  143.4149  157.8551  135.3675 H   0  0  0  0  0  0  0  0  0  0  0  0
  142.4051  156.5274  134.5788 H   0  0  0  0  0  0  0  0  0  0  0  0
  142.0410  160.5670  134.0730 H   0  0  0  0  0  0  0  0  0  0  0  0
  147.0004  160.8871  133.2232 H   0  0  0  0  0  0  0  0  0  0  0  0
  149.2381  159.1431  132.9209 H   0  0  0  0  0  0  0  0  0  0  0  0
  149.8800  156.7228  132.7262 H   0  0  0  0  0  0  0  0  0  0  0  0
  149.7760  154.3916  131.3819 H   0  0  0  0  0  0  0  0  0  0  0  0
  150.3017  154.5974  133.0600 H   0  0  0  0  0  0  0  0  0  0  0  0
  150.0363  152.1278  131.7599 H   0  0  0  0  0  0  0  0  0  0  0  0
  150.0246  152.3070  133.5202 H   0  0  0  0  0  0  0  0  0  0  0  0
  147.7322  151.8786  131.6102 H   0  0  0  0  0  0  0  0  0  0  0  0
  147.8499  151.4007  133.3102 H   0  0  0  0  0  0  0  0  0  0  0  0
  146.3849  153.5953  132.3674 H   0  0  0  0  0  0  0  0  0  0  0  0
  146.9445  153.4458  134.0403 H   0  0  0  0  0  0  0  0  0  0  0  0
  145.6844  155.5887  133.0844 H   0  0  0  0  0  0  0  0  0  0  0  0
  1  2  1  0
  2  3  2  0
  2  4  1  0
  4  5  1  0
  5  6  1  0
  6  7  2  0
  6  8  1  0
  4  9  1  0
  9 10  1  0
 10 11  2  0
 10 12  1  0
 12 13  1  0
 13 14  1  0
 14 15  1  0
 14 16  2  0
 13 17  2  0
 17 18  1  0
 18 19  2  0
 19 20  1  0
 20 21  2  0
 21 22  1  0
 22 23  1  0
 23 24  1  0
 24 25  1  0
 25 26  1  0
 21 27  1  0
 27 28  2  0
 28 12  1  0
 28 18  1  0
 26 22  1  0
  1 29  1  0
  1 30  1  0
  1 31  1  0
  4 32  1  6
  5 33  1  0
  5 34  1  0
  9 35  1  0
  9 36  1  0
 15 37  1  0
 17 38  1  0
 19 39  1  0
 20 40  1  0
 23 41  1  0
 23 42  1  0
 24 43  1  0
 24 44  1  0
 25 45  1  0
 25 46  1  0
 26 47  1  0
 26 48  1  0
 27 49  1  0
M  CHG  3   4   1   8  -1  15  -1
M  END
>  <UniqueID>  (92) 
91

>  <SMILES>  (92) 
CC(=O)[N@H+](CC(=O)[O-])CC(=O)n1c(C([NH-])=O)cc2ccc(N3CCCC3)cc21

>  <Energy>  (92) 
101.98662576552168

>  <Genealogy>  (92) 
CC(=O)[NH+](CC(=O)[O-])CC(=O)n1c(C([NH-])=O)cc2ccc(N3CCCC3)cc21 (protonated)
CC(=O)[N@H+](CC(=O)[O-])CC(=O)n1c(C([NH-])=O)cc2ccc(N3CCCC3)cc21 (chirality)
CC(=O)[N@H+](CC(=O)[O-])CC(=O)n1c(C([NH-])=O)cc2ccc(N3CCCC3)cc21 (3D coordinates assigned)
CC(=O)[N@H+](CC(=O)[O-])CC(=O)n1c(C([NH-])=O)cc2ccc(N3CCCC3)cc21 (nonaromatic ring conformer: 101.98662576552168 kcal/mol)

>  <smiles>  (92) 
CC(=O)N(CC(=O)O)CC(=O)n1c(C(N)=O)cc2ccc(N3CCCC3)cc21

>  <score_type>  (92) 
oracle

>  <origin>  (92) 
adg

>  <m_score__min__energy>  (92) 
-7.3600000000000003

>  <m_primary>  (92) 
energy

$$$$
93:0
     RDKit          3D

 39 40  0  0  0  0  0  0  0  0999 V2000
  143.2670  156.1380  132.6360 C   0  0  0  0  0  0  0  0  0  0  0  0
  142.5650  157.2280  133.3240 N   0  0  0  0  0  0  0  0  0  0  0  0
  143.2890  158.0460  134.2680 C   0  0  0  0  0  0  0  0  0  0  0  0
  142.8640  158.1890  135.4460 O   0  0  0  0  0  0  0  0  0  0  0  0
  144.4890  158.7290  133.8740 N   0  0  0  0  0  0  0  0  0  0  0  0
  144.6640  160.0650  133.6760 C   0  0  0  0  0  0  0  0  0  0  0  0
  143.6020  161.0910  133.7360 C   0  0  0  0  0  0  0  0  0  0  0  0
  142.2380  160.6970  133.8650 N   0  0  0  0  0  0  0  0  0  0  0  0
  143.8880  162.3160  133.6900 O   0  0  0  0  0  0  0  0  0  0  0  0
  145.9890  160.3360  133.3380 C   0  0  0  0  0  0  0  0  0  0  0  0
  146.6200  159.1110  133.3270 C   0  0  0  0  0  0  0  0  0  0  0  0
  147.9490  158.7880  133.0710 C   0  0  0  0  0  0  0  0  0  0  0  0
  148.3250  157.4370  133.1520 C   0  0  0  0  0  0  0  0  0  0  0  0
  147.3720  156.4340  133.4720 C   0  0  0  0  0  0  0  0  0  0  0  0
  147.8010  154.9960  133.6130 C   0  0  0  0  0  0  0  0  0  0  0  0
  146.8140  154.1750  133.1030 F   0  0  0  0  0  0  0  0  0  0  0  0
  148.9790  154.7680  132.9230 F   0  0  0  0  0  0  0  0  0  0  0  0
  148.0110  154.6780  134.9440 F   0  0  0  0  0  0  0  0  0  0  0  0
  146.0360  156.8080  133.7490 C   0  0  0  0  0  0  0  0  0  0  0  0
  145.6900  158.1590  133.6500 C   0  0  0  0  0  0  0  0  0  0  0  0
  141.1530  157.4390  133.0990 C   0  0  0  0  0  0  0  0  0  0  0  0
  140.4510  156.5010  132.6220 O   0  0  0  0  0  0  0  0  0  0  0  0
  140.5260  158.7000  133.4350 N   0  0  1  0  0  0  0  0  0  0  0  0
  139.6030  159.1350  132.3750 C   0  0  0  0  0  0  0  0  0  0  0  0
  139.8300  158.5870  134.6920 C   0  0  0  0  0  0  0  0  0  0  0  0
  138.7880  157.8830  134.7920 O   0  0  0  0  0  0  0  0  0  0  0  0
  140.2990  159.2690  135.8090 O   0  0  0  0  0  0  0  0  0  0  0  0
  143.7056  155.4570  133.3802 H   0  0  0  0  0  0  0  0  0  0  0  0
  142.5557  155.5837  132.0061 H   0  0  0  0  0  0  0  0  0  0  0  0
  144.0659  156.5564  132.0061 H   0  0  0  0  0  0  0  0  0  0  0  0
  141.9560  159.9580  134.5470 H   0  0  0  0  0  0  0  0  0  0  0  0
  146.4357  161.3185  133.1254 H   0  0  0  0  0  0  0  0  0  0  0  0
  148.6823  159.5663  132.8132 H   0  0  0  0  0  0  0  0  0  0  0  0
  149.3710  157.1523  132.9652 H   0  0  0  0  0  0  0  0  0  0  0  0
  145.2877  156.0543  134.0353 H   0  0  0  0  0  0  0  0  0  0  0  0
  141.2560  159.4430  133.5210 H   0  0  0  0  0  0  0  0  0  0  0  0
  138.6971  159.5619  132.8301 H   0  0  0  0  0  0  0  0  0  0  0  0
  140.0938  159.8966  131.7512 H   0  0  0  0  0  0  0  0  0  0  0  0
  139.3280  158.2717  131.7512 H   0  0  0  0  0  0  0  0  0  0  0  0
  1  2  1  0
  2  3  1  0
  3  4  2  0
  3  5  1  0
  5  6  1  0
  6  7  1  0
  7  8  1  0
  7  9  2  0
  6 10  2  0
 10 11  1  0
 11 12  2  0
 12 13  1  0
 13 14  2  0
 14 15  1  0
 15 16  1  0
 15 17  1  0
 15 18  1  0
 14 19  1  0
 19 20  2  0
  2 21  1  0
 21 22  2  0
 21 23  1  0
 23 24  1  0
 23 25  1  0
 25 26  2  0
 25 27  1  0
 20  5  1  0
 20 11  1  0
  1 28  1  0
  1 29  1  0
  1 30  1  0
  8 31  1  0
 10 32  1  0
 12 33  1  0
 13 34  1  0
 19 35  1  0
 23 36  1  1
 24 37  1  0
 24 38  1  0
 24 39  1  0
M  CHG  3   8  -1  23   1  27  -1
M  END
>  <UniqueID>  (93) 
92

>  <SMILES>  (93) 
CN(C(=O)n1c(C([NH-])=O)cc2ccc(C(F)(F)F)cc21)C(=O)[NH+](C)C(=O)[O-]

>  <Energy>  (93) 
84.80284992901888

>  <Genealogy>  (93) 
CN(C(=O)n1c(C([NH-])=O)cc2ccc(C(F)(F)F)cc21)C(=O)[NH+](C)C(=O)[O-] (protonated)
CN(C(=O)n1c(C([NH-])=O)cc2ccc(C(F)(F)F)cc21)C(=O)[NH+](C)C(=O)[O-] (3D coordinates assigned)
CN(C(=O)n1c(C([NH-])=O)cc2ccc(C(F)(F)F)cc21)C(=O)[NH+](C)C(=O)[O-] (optimized conformer: 84.80284992901888 kcal/mol)

>  <smiles>  (93) 
CN(C(=O)O)C(=O)N(C)C(=O)n1c(C(N)=O)cc2ccc(C(F)(F)F)cc21

>  <score_type>  (93) 
oracle

>  <origin>  (93) 
adg

>  <m_score__min__energy>  (93) 
-5.3499999999999996

>  <m_primary>  (93) 
energy

$$$$
94:0
     RDKit          3D

 33 34  0  0  0  0  0  0  0  0999 V2000
  146.2170  151.7200  131.9580 N   0  0  0  0  0  0  0  0  0  0  0  0
  145.3600  152.6790  132.5790 C   0  0  0  0  0  0  0  0  0  0  0  0
  144.1860  152.3470  132.8930 O   0  0  0  0  0  0  0  0  0  0  0  0
  145.8040  154.0690  132.8020 C   0  0  0  0  0  0  0  0  0  0  0  0
  144.9280  155.1240  133.0420 C   0  0  0  0  0  0  0  0  0  0  0  0
  145.7230  156.2440  133.1250 C   0  0  0  0  0  0  0  0  0  0  0  0
  145.3760  157.5710  133.3590 C   0  0  0  0  0  0  0  0  0  0  0  0
  146.4080  158.5200  133.4270 C   0  0  0  0  0  0  0  0  0  0  0  0
  147.7620  158.1250  133.2820 C   0  0  0  0  0  0  0  0  0  0  0  0
  148.8550  159.1520  133.3370 C   0  0  0  0  0  0  0  0  0  0  0  0
  149.2200  159.7280  131.6930 Cl  0  0  0  0  0  0  0  0  0  0  0  0
  148.0760  156.7700  133.0350 C   0  0  0  0  0  0  0  0  0  0  0  0
  147.0250  155.8490  132.9490 C   0  0  0  0  0  0  0  0  0  0  0  0
  147.0910  154.5130  132.7520 N   0  0  0  0  0  0  0  0  0  0  0  0
  148.2850  153.7210  132.6340 C   0  0  0  0  0  0  0  0  0  0  0  0
  149.2350  154.1230  131.9080 O   0  0  0  0  0  0  0  0  0  0  0  0
  148.3820  152.5020  133.3150 O   0  0  0  0  0  0  0  0  0  0  0  0
  149.5540  151.6880  133.3210 C   0  0  0  0  0  0  0  0  0  0  0  0
  149.4930  150.6380  132.2140 C   0  0  0  0  0  0  0  0  0  0  0  0
  148.7590  151.1220  131.1260 O   0  0  0  0  0  0  0  0  0  0  0  0
  147.1230  152.0060  131.5280 H   0  0  0  0  0  0  0  0  0  0  0  0
  145.9030  150.7300  131.8480 H   0  0  0  0  0  0  0  0  0  0  0  0
  143.8339  155.0731  133.1436 H   0  0  0  0  0  0  0  0  0  0  0  0
  144.3245  157.8675  133.4869 H   0  0  0  0  0  0  0  0  0  0  0  0
  146.1642  159.5795  133.5943 H   0  0  0  0  0  0  0  0  0  0  0  0
  148.5293  159.9998  133.9576 H   0  0  0  0  0  0  0  0  0  0  0  0
  149.7579  158.7001  133.7736 H   0  0  0  0  0  0  0  0  0  0  0  0
  149.1203  156.4465  132.9133 H   0  0  0  0  0  0  0  0  0  0  0  0
  150.4364  152.3258  133.1644 H   0  0  0  0  0  0  0  0  0  0  0  0
  149.6197  151.1732  134.2909 H   0  0  0  0  0  0  0  0  0  0  0  0
  150.5147  150.3981  131.8846 H   0  0  0  0  0  0  0  0  0  0  0  0
  149.0012  149.7347  132.6042 H   0  0  0  0  0  0  0  0  0  0  0  0
  148.7340  152.1090  131.2280 H   0  0  0  0  0  0  0  0  0  0  0  0
  1  2  1  0
  2  3  2  0
  2  4  1  0
  4  5  2  0
  5  6  1  0
  6  7  2  0
  7  8  1  0
  8  9  2  0
  9 10  1  0
 10 11  1  0
  9 12  1  0
 12 13  2  0
 13 14  1  0
 14 15  1  0
 15 16  2  0
 15 17  1  0
 17 18  1  0
 18 19  1  0
 19 20  1  0
 14  4  1  0
 13  6  1  0
  1 21  1  0
  1 22  1  0
  5 23  1  0
  7 24  1  0
  8 25  1  0
 10 26  1  0
 10 27  1  0
 12 28  1  0
 18 29  1  0
 18 30  1  0
 19 31  1  0
 19 32  1  0
 20 33  1  0
M  END
>  <UniqueID>  (94) 
93

>  <SMILES>  (94) 
NC(=O)c1cc2ccc(CCl)cc2n1C(=O)OCCO

>  <Energy>  (94) 
67.97233520042423

>  <Genealogy>  (94) 
NC(=O)c1cc2ccc(CCl)cc2n1C(=O)OCCO (3D coordinates assigned)
NC(=O)c1cc2ccc(CCl)cc2n1C(=O)OCCO (optimized conformer: 67.97233520042423 kcal/mol)

>  <smiles>  (94) 
NC(=O)c1cc2ccc(CCl)cc2n1C(=O)OCCO

>  <score_type>  (94) 
oracle

>  <origin>  (94) 
adg

>  <m_score__min__energy>  (94) 
-6.5499999999999998

>  <m_primary>  (94) 
energy

$$$$
95:0
     RDKit          3D

 43 44  0  0  0  0  0  0  0  0999 V2000
  137.9950  159.5010  130.6120 C   0  0  0  0  0  0  0  0  0  0  0  0
  138.3720  159.5070  132.0980 C   0  0  2  0  0  0  0  0  0  0  0  0
  139.6960  160.2590  132.3260 C   0  0  0  0  0  0  0  0  0  0  0  0
  140.2330  159.9590  133.5860 O   0  0  0  0  0  0  0  0  0  0  0  0
  138.4850  158.1280  132.5870 N   0  0  0  0  0  0  0  0  0  0  0  0
  139.6950  157.3650  132.4500 C   0  0  0  0  0  0  0  0  0  0  0  0
  140.6980  157.8680  131.8760 O   0  0  0  0  0  0  0  0  0  0  0  0
  139.7790  155.9910  132.9810 C   0  0  0  0  0  0  0  0  0  0  0  0
  138.7540  155.2590  132.9940 O   0  0  0  0  0  0  0  0  0  0  0  0
  141.0210  155.4790  133.4890 N   0  0  0  0  0  0  0  0  0  0  0  0
  142.0010  156.1680  134.1370 C   0  0  0  0  0  0  0  0  0  0  0  0
  142.0240  157.6290  134.3620 C   0  0  0  0  0  0  0  0  0  0  0  0
  142.7060  158.4790  133.4440 N   0  0  0  0  0  0  0  0  0  0  0  0
  141.4300  158.1380  135.3500 O   0  0  0  0  0  0  0  0  0  0  0  0
  143.0270  155.3070  134.5240 C   0  0  0  0  0  0  0  0  0  0  0  0
  142.6370  154.0590  134.0920 C   0  0  0  0  0  0  0  0  0  0  0  0
  143.2680  152.8280  134.2230 C   0  0  0  0  0  0  0  0  0  0  0  0
  142.6200  151.6950  133.7050 C   0  0  0  0  0  0  0  0  0  0  0  0
  141.3470  151.7990  133.0720 C   0  0  0  0  0  0  0  0  0  0  0  0
  140.6820  150.6210  132.5460 N   0  0  0  0  0  0  0  0  0  0  0  0
  141.3290  149.3050  132.6120 C   0  0  0  0  0  0  0  0  0  0  0  0
  139.3500  150.7280  131.9370 C   0  0  0  0  0  0  0  0  0  0  0  0
  140.7420  153.0790  132.9660 C   0  0  0  0  0  0  0  0  0  0  0  0
  141.4230  154.1890  133.4750 C   0  0  0  0  0  0  0  0  0  0  0  0
  136.8997  159.4836  130.5117 H   0  0  0  0  0  0  0  0  0  0  0  0
  138.3931  160.4056  130.1291 H   0  0  0  0  0  0  0  0  0  0  0  0
  138.4217  158.6095  130.1291 H   0  0  0  0  0  0  0  0  0  0  0  0
  137.5807  160.0282  132.6568 H   0  0  0  0  0  0  0  0  0  0  0  0
  140.4160  159.9639  131.5485 H   0  0  0  0  0  0  0  0  0  0  0  0
  139.4983  161.3400  132.2773 H   0  0  0  0  0  0  0  0  0  0  0  0
  140.8970  159.2340  133.4470 H   0  0  0  0  0  0  0  0  0  0  0  0
  137.6510  157.6730  133.0220 H   0  0  0  0  0  0  0  0  0  0  0  0
  142.1770  159.1200  132.8110 H   0  0  0  0  0  0  0  0  0  0  0  0
  143.9511  155.5688  135.0602 H   0  0  0  0  0  0  0  0  0  0  0  0
  144.2467  152.7435  134.7181 H   0  0  0  0  0  0  0  0  0  0  0  0
  143.1030  150.7103  133.7891 H   0  0  0  0  0  0  0  0  0  0  0  0
  141.4700  149.0181  133.6645 H   0  0  0  0  0  0  0  0  0  0  0  0
  140.6949  148.5591  132.1105 H   0  0  0  0  0  0  0  0  0  0  0  0
  142.3069  149.3516  132.1105 H   0  0  0  0  0  0  0  0  0  0  0  0
  138.5887  150.7891  132.7286 H   0  0  0  0  0  0  0  0  0  0  0  0
  139.3037  151.6328  131.3131 H   0  0  0  0  0  0  0  0  0  0  0  0
  139.1599  149.8422  131.3131 H   0  0  0  0  0  0  0  0  0  0  0  0
  139.7560  153.1953  132.4923 H   0  0  0  0  0  0  0  0  0  0  0  0
  1  2  1  0
  2  3  1  0
  3  4  1  0
  2  5  1  0
  5  6  1  0
  6  7  2  0
  6  8  1  0
  8  9  2  0
  8 10  1  0
 10 11  1  0
 11 12  1  0
 12 13  1  0
 12 14  2  0
 11 15  2  0
 15 16  1  0
 16 17  2  0
 17 18  1  0
 18 19  2  0
 19 20  1  0
 20 21  1  0
 20 22  1  0
 19 23  1  0
 23 24  2  0
 24 10  1  0
 24 16  1  0
  1 25  1  0
  1 26  1  0
  1 27  1  0
  2 28  1  1
  3 29  1  0
  3 30  1  0
  4 31  1  0
  5 32  1  0
 13 33  1  0
 15 34  1  0
 17 35  1  0
 18 36  1  0
 21 37  1  0
 21 38  1  0
 21 39  1  0
 22 40  1  0
 22 41  1  0
 22 42  1  0
 23 43  1  0
M  CHG  1  13  -1
M  END
>  <UniqueID>  (95) 
94

>  <SMILES>  (95) 
C[C@H](CO)NC(=O)C(=O)n1c(C([NH-])=O)cc2ccc(N(C)C)cc21

>  <Energy>  (95) 
77.73016006705828

>  <Genealogy>  (95) 
CC(CO)NC(=O)C(=O)n1c(C([NH-])=O)cc2ccc(N(C)C)cc21 (protonated)
C[C@H](CO)NC(=O)C(=O)n1c(C([NH-])=O)cc2ccc(N(C)C)cc21 (chirality)
C[C@H](CO)NC(=O)C(=O)n1c(C([NH-])=O)cc2ccc(N(C)C)cc21 (3D coordinates assigned)
C[C@H](CO)NC(=O)C(=O)n1c(C([NH-])=O)cc2ccc(N(C)C)cc21 (optimized conformer: 77.73016006705828 kcal/mol)

>  <smiles>  (95) 
CC(CO)NC(=O)C(=O)n1c(C(N)=O)cc2ccc(N(C)C)cc21

>  <score_type>  (95) 
oracle

>  <origin>  (95) 
adg

>  <m_score__min__energy>  (95) 
-6.3499999999999996

>  <m_primary>  (95) 
energy

$$$$
96:0
     RDKit          3D

 31 32  0  0  0  0  0  0  0  0999 V2000
  144.4840  161.5070  134.0230 C   0  0  0  0  0  0  0  0  0  0  0  0
  144.0400  160.1010  133.7420 C   0  0  0  0  0  0  0  0  0  0  0  0
  144.9980  159.0650  133.6310 C   0  0  0  0  0  0  0  0  0  0  0  0
  144.5920  157.7350  133.4340 C   0  0  0  0  0  0  0  0  0  0  0  0
  143.2270  157.4770  133.3410 C   0  0  0  0  0  0  0  0  0  0  0  0
  142.5660  156.2760  133.2320 C   0  0  0  0  0  0  0  0  0  0  0  0
  141.2120  156.5990  133.2480 C   0  0  0  0  0  0  0  0  0  0  0  0
  140.1390  155.5830  133.1950 C   0  0  0  0  0  0  0  0  0  0  0  0
  138.7740  155.9460  132.9900 N   0  0  0  0  0  0  0  0  0  0  0  0
  140.4410  154.3630  133.2890 O   0  0  0  0  0  0  0  0  0  0  0  0
  141.0380  157.9480  133.3540 N   0  0  0  0  0  0  0  0  0  0  0  0
  139.7950  158.6550  133.5220 C   0  0  0  0  0  0  0  0  0  0  0  0
  138.9640  158.2530  134.3800 O   0  0  0  0  0  0  0  0  0  0  0  0
  139.4830  159.8830  132.7130 C   0  0  0  0  0  0  0  0  0  0  0  0
  138.7010  159.4580  131.1250 P   0  0  0  0  0  0  0  0  0  0  0  0
  139.4750  160.1120  130.0040 O   0  0  0  0  0  0  0  0  0  0  0  0
  138.7260  157.7820  130.9080 O   0  0  0  0  0  0  0  0  0  0  0  0
  137.1030  160.0100  131.0910 O   0  0  0  0  0  0  0  0  0  0  0  0
  142.2850  158.4710  133.4270 C   0  0  0  0  0  0  0  0  0  0  0  0
  142.6630  159.7980  133.6670 C   0  0  0  0  0  0  0  0  0  0  0  0
  144.5340  161.6653  135.1104 H   0  0  0  0  0  0  0  0  0  0  0  0
  145.4781  161.6726  133.5823 H   0  0  0  0  0  0  0  0  0  0  0  0
  143.7652  162.2135  133.5823 H   0  0  0  0  0  0  0  0  0  0  0  0
  146.0696  159.3036  133.6996 H   0  0  0  0  0  0  0  0  0  0  0  0
  145.3294  156.9226  133.3556 H   0  0  0  0  0  0  0  0  0  0  0  0
  143.0120  155.2739  133.1497 H   0  0  0  0  0  0  0  0  0  0  0  0
  138.5110  156.9160  132.7180 H   0  0  0  0  0  0  0  0  0  0  0  0
  138.0290  155.2160  133.0120 H   0  0  0  0  0  0  0  0  0  0  0  0
  138.7988  160.5247  133.2875 H   0  0  0  0  0  0  0  0  0  0  0  0
  140.4277  160.4057  132.5025 H   0  0  0  0  0  0  0  0  0  0  0  0
  141.9053  160.5853  133.7940 H   0  0  0  0  0  0  0  0  0  0  0  0
  1  2  1  0
  2  3  2  0
  3  4  1  0
  4  5  2  0
  5  6  1  0
  6  7  2  0
  7  8  1  0
  8  9  1  0
  8 10  2  0
  7 11  1  0
 11 12  1  0
 12 13  2  0
 12 14  1  0
 14 15  1  0
 15 16  2  0
 15 17  1  0
 15 18  1  0
 11 19  1  0
 19 20  2  0
 20  2  1  0
 19  5  1  0
  1 21  1  0
  1 22  1  0
  1 23  1  0
  3 24  1  0
  4 25  1  0
  6 26  1  0
  9 27  1  0
  9 28  1  0
 14 29  1  0
 14 30  1  0
 20 31  1  0
M  CHG  2  17  -1  18  -1
M  END
>  <UniqueID>  (96) 
95

>  <SMILES>  (96) 
Cc1ccc2cc(C(N)=O)n(C(=O)CP(=O)([O-])[O-])c2c1

>  <Energy>  (96) 
66.85686592728882

>  <Genealogy>  (96) 
Cc1ccc2cc(C(N)=O)n(C(=O)CP(=O)([O-])[O-])c2c1 (protonated)
Cc1ccc2cc(C(N)=O)n(C(=O)CP(=O)([O-])[O-])c2c1 (3D coordinates assigned)
Cc1ccc2cc(C(N)=O)n(C(=O)CP(=O)([O-])[O-])c2c1 (optimized conformer: 66.85686592728882 kcal/mol)

>  <smiles>  (96) 
Cc1ccc2cc(C(N)=O)n(C(=O)CP(=O)(O)O)c2c1

>  <score_type>  (96) 
oracle

>  <origin>  (96) 
adg

>  <m_score__min__energy>  (96) 
-6.3700000000000001

>  <m_primary>  (96) 
energy

$$$$
97:0
     RDKit          3D

 37 38  0  0  0  0  0  0  0  0999 V2000
  149.6060  162.6530  129.9870 C   0  0  0  0  0  0  0  0  0  0  0  0
  149.3410  161.6160  130.5420 C   0  0  0  0  0  0  0  0  0  0  0  0
  149.0250  160.3770  131.2030 C   0  0  0  0  0  0  0  0  0  0  0  0
  149.9620  159.3180  131.2010 C   0  0  0  0  0  0  0  0  0  0  0  0
  149.6590  158.1000  131.8300 C   0  0  0  0  0  0  0  0  0  0  0  0
  148.4220  157.9780  132.4580 C   0  0  0  0  0  0  0  0  0  0  0  0
  147.8640  156.9020  133.1080 C   0  0  0  0  0  0  0  0  0  0  0  0
  146.6070  157.3350  133.5220 C   0  0  0  0  0  0  0  0  0  0  0  0
  145.6840  156.5010  134.3170 C   0  0  0  0  0  0  0  0  0  0  0  0
  144.2990  156.4130  133.9830 N   0  0  0  0  0  0  0  0  0  0  0  0
  146.1130  155.9020  135.3380 O   0  0  0  0  0  0  0  0  0  0  0  0
  146.3870  158.6220  133.1340 N   0  0  0  0  0  0  0  0  0  0  0  0
  145.1650  159.3700  133.2640 C   0  0  0  0  0  0  0  0  0  0  0  0
  145.1830  160.5320  133.7520 O   0  0  0  0  0  0  0  0  0  0  0  0
  143.9590  158.8040  132.8340 O   0  0  0  0  0  0  0  0  0  0  0  0
  142.6820  159.1590  133.3620 C   0  0  2  0  0  0  0  0  0  0  0  0
  142.7700  159.3830  134.8720 C   0  0  0  0  0  0  0  0  0  0  0  0
  141.7150  158.0530  133.0710 C   0  0  0  0  0  0  0  0  0  0  0  0
  140.7850  158.2340  132.2380 O   0  0  0  0  0  0  0  0  0  0  0  0
  141.8300  156.8400  133.7580 O   0  0  0  0  0  0  0  0  0  0  0  0
  140.8640  155.8020  133.6460 C   0  0  0  0  0  0  0  0  0  0  0  0
  147.5110  159.0050  132.4840 C   0  0  0  0  0  0  0  0  0  0  0  0
  147.7790  160.2230  131.8450 C   0  0  0  0  0  0  0  0  0  0  0  0
  149.8478  163.5991  129.4806 H   0  0  0  0  0  0  0  0  0  0  0  0
  150.9343  159.4493  130.7036 H   0  0  0  0  0  0  0  0  0  0  0  0
  150.3772  157.2669  131.8269 H   0  0  0  0  0  0  0  0  0  0  0  0
  148.3145  155.9111  133.2669 H   0  0  0  0  0  0  0  0  0  0  0  0
  143.6670  155.7820  134.5250 H   0  0  0  0  0  0  0  0  0  0  0  0
  143.8820  157.0240  133.2460 H   0  0  0  0  0  0  0  0  0  0  0  0
  142.3410  160.0932  132.8919 H   0  0  0  0  0  0  0  0  0  0  0  0
  142.4166  158.4835  135.3973 H   0  0  0  0  0  0  0  0  0  0  0  0
  143.8143  159.5849  135.1525 H   0  0  0  0  0  0  0  0  0  0  0  0
  142.1424  160.2417  135.1525 H   0  0  0  0  0  0  0  0  0  0  0  0
  140.5593  155.4746  134.6510 H   0  0  0  0  0  0  0  0  0  0  0  0
  139.9853  156.1762  133.1002 H   0  0  0  0  0  0  0  0  0  0  0  0
  141.3003  154.9524  133.1002 H   0  0  0  0  0  0  0  0  0  0  0  0
  147.0382  161.0362  131.8442 H   0  0  0  0  0  0  0  0  0  0  0  0
  1  2  3  0
  2  3  1  0
  3  4  2  0
  4  5  1  0
  5  6  2  0
  6  7  1  0
  7  8  2  0
  8  9  1  0
  9 10  1  0
  9 11  2  0
  8 12  1  0
 12 13  1  0
 13 14  2  0
 13 15  1  0
 15 16  1  0
 16 17  1  0
 16 18  1  0
 18 19  2  0
 18 20  1  0
 20 21  1  0
 12 22  1  0
 22 23  2  0
 23  3  1  0
 22  6  1  0
  1 24  1  0
  4 25  1  0
  5 26  1  0
  7 27  1  0
 10 28  1  0
 10 29  1  0
 16 30  1  6
 17 31  1  0
 17 32  1  0
 17 33  1  0
 21 34  1  0
 21 35  1  0
 21 36  1  0
 23 37  1  0
M  END
>  <UniqueID>  (97) 
96

>  <SMILES>  (97) 
C#Cc1ccc2cc(C(N)=O)n(C(=O)O[C@H](C)C(=O)OC)c2c1

>  <Energy>  (97) 
67.2345994634041

>  <Genealogy>  (97) 
C#Cc1ccc2cc(C(N)=O)n(C(=O)O[C@H](C)C(=O)OC)c2c1 (chirality)
C#Cc1ccc2cc(C(N)=O)n(C(=O)O[C@H](C)C(=O)OC)c2c1 (3D coordinates assigned)
C#Cc1ccc2cc(C(N)=O)n(C(=O)O[C@H](C)C(=O)OC)c2c1 (optimized conformer: 67.2345994634041 kcal/mol)

>  <smiles>  (97) 
C#Cc1ccc2cc(C(N)=O)n(C(=O)OC(C)C(=O)OC)c2c1

>  <score_type>  (97) 
oracle

>  <origin>  (97) 
adg

>  <m_score__min__energy>  (97) 
-6.54

>  <m_primary>  (97) 
energy

$$$$
98:0
     RDKit          3D

 73 76  0  0  0  0  0  0  0  0999 V2000
  138.3820  160.0810  130.1680 C   0  0  0  0  0  0  0  0  0  0  0  0
  139.0570  159.7550  131.1130 C   0  0  0  0  0  0  0  0  0  0  0  0
  139.8700  159.3630  132.2330 C   0  0  0  0  0  0  0  0  0  0  0  0
  140.5230  160.3520  133.0070 C   0  0  0  0  0  0  0  0  0  0  0  0
  141.3300  159.9850  134.0960 C   0  0  0  0  0  0  0  0  0  0  0  0
  141.4730  158.6300  134.3720 C   0  0  0  0  0  0  0  0  0  0  0  0
  142.1940  158.0060  135.3590 C   0  0  0  0  0  0  0  0  0  0  0  0
  141.9740  156.6440  135.1730 C   0  0  0  0  0  0  0  0  0  0  0  0
  142.6760  155.6020  135.9440 C   0  0  0  0  0  0  0  0  0  0  0  0
  143.5430  154.6900  135.2670 N   0  0  0  0  0  0  0  0  0  0  0  0
  142.4860  155.4740  137.1830 O   0  0  0  0  0  0  0  0  0  0  0  0
  141.1320  156.4310  134.1180 N   0  0  0  0  0  0  0  0  0  0  0  0
  140.5400  155.1820  133.7120 C   0  0  0  0  0  0  0  0  0  0  0  0
  139.4930  155.1830  133.0050 O   0  0  0  0  0  0  0  0  0  0  0  0
  141.1380  153.9660  134.0760 O   0  0  0  0  0  0  0  0  0  0  0  0
  141.3810  152.9070  133.1500 C   0  0  0  0  0  0  0  0  0  0  0  0
  142.8780  152.7270  132.9210 C   0  0  0  0  0  0  0  0  0  0  0  0
  143.3570  153.7440  132.0680 O   0  0  0  0  0  0  0  0  0  0  0  0
  144.5580  154.2930  132.5690 C   0  0  0  0  0  0  0  0  0  0  0  0
  145.5640  153.1840  132.8770 C   0  0  0  0  0  0  0  0  0  0  0  0
  145.8230  153.1830  134.2620 O   0  0  0  0  0  0  0  0  0  0  0  0
  147.4730  153.6130  134.6200 Si  0  0  0  0  0  4  0  0  0  0  0  0
  148.6360  152.5830  133.5750 C   0  0  0  0  0  0  0  0  0  0  0  0
  148.7350  152.7670  132.1860 C   0  0  0  0  0  0  0  0  0  0  0  0
  149.5960  151.9680  131.4240 C   0  0  0  0  0  0  0  0  0  0  0  0
  150.3470  150.9660  132.0390 C   0  0  0  0  0  0  0  0  0  0  0  0
  150.2210  150.7460  133.4130 C   0  0  0  0  0  0  0  0  0  0  0  0
  149.3540  151.5350  134.1740 C   0  0  0  0  0  0  0  0  0  0  0  0
  147.6450  155.3750  134.0620 C   0  0  0  0  0  0  0  0  0  0  0  0
  148.6250  155.7120  133.1170 C   0  0  0  0  0  0  0  0  0  0  0  0
  148.7330  157.0270  132.6510 C   0  0  0  0  0  0  0  0  0  0  0  0
  147.8560  158.0100  133.1180 C   0  0  0  0  0  0  0  0  0  0  0  0
  146.8710  157.6770  134.0520 C   0  0  0  0  0  0  0  0  0  0  0  0
  146.7610  156.3640  134.5220 C   0  0  0  0  0  0  0  0  0  0  0  0
  147.7920  153.5810  136.5200 C   0  0  0  0  0  0  0  0  0  0  0  0
  148.4800  154.8880  136.9700 C   0  0  0  0  0  0  0  0  0  0  0  0
  148.6840  152.3810  136.9080 C   0  0  0  0  0  0  0  0  0  0  0  0
  146.4360  153.4810  137.2500 C   0  0  0  0  0  0  0  0  0  0  0  0
  140.8470  157.6570  133.6260 C   0  0  0  0  0  0  0  0  0  0  0  0
  140.0160  157.9990  132.5500 C   0  0  0  0  0  0  0  0  0  0  0  0
  137.7664  160.3783  129.3062 H   0  0  0  0  0  0  0  0  0  0  0  0
  140.3975  161.4151  132.7538 H   0  0  0  0  0  0  0  0  0  0  0  0
  141.8331  160.7456  134.7112 H   0  0  0  0  0  0  0  0  0  0  0  0
  142.8143  158.4813  136.1331 H   0  0  0  0  0  0  0  0  0  0  0  0
  143.2900  154.3060  134.3310 H   0  0  0  0  0  0  0  0  0  0  0  0
  140.9618  151.9726  133.5513 H   0  0  0  0  0  0  0  0  0  0  0  0
  140.9033  153.1576  132.1914 H   0  0  0  0  0  0  0  0  0  0  0  0
  143.4041  152.7816  133.8855 H   0  0  0  0  0  0  0  0  0  0  0  0
  143.0588  151.7471  132.4550 H   0  0  0  0  0  0  0  0  0  0  0  0
  144.9867  154.9727  131.8179 H   0  0  0  0  0  0  0  0  0  0  0  0
  144.3390  154.8432  133.4960 H   0  0  0  0  0  0  0  0  0  0  0  0
  145.1464  152.2114  132.5775 H   0  0  0  0  0  0  0  0  0  0  0  0
  146.4968  153.3582  132.3207 H   0  0  0  0  0  0  0  0  0  0  0  0
  148.1320  153.5441  131.6936 H   0  0  0  0  0  0  0  0  0  0  0  0
  149.6803  152.1305  130.3393 H   0  0  0  0  0  0  0  0  0  0  0  0
  151.0370  150.3503  131.4433 H   0  0  0  0  0  0  0  0  0  0  0  0
  150.8056  149.9498  133.8970 H   0  0  0  0  0  0  0  0  0  0  0  0
  149.2332  151.3340  135.2487 H   0  0  0  0  0  0  0  0  0  0  0  0
  149.3116  154.9394  132.7406 H   0  0  0  0  0  0  0  0  0  0  0  0
  149.5091  157.2874  131.9162 H   0  0  0  0  0  0  0  0  0  0  0  0
  147.9408  159.0436  132.7512 H   0  0  0  0  0  0  0  0  0  0  0  0
  146.1798  158.4501  134.4188 H   0  0  0  0  0  0  0  0  0  0  0  0
  145.9807  156.1060  135.2531 H   0  0  0  0  0  0  0  0  0  0  0  0
  148.5026  154.9309  138.0689 H   0  0  0  0  0  0  0  0  0  0  0  0
  149.5085  154.9138  136.5808 H   0  0  0  0  0  0  0  0  0  0  0  0
  147.9190  155.7505  136.5808 H   0  0  0  0  0  0  0  0  0  0  0  0
  148.7403  152.3052  138.0039 H   0  0  0  0  0  0  0  0  0  0  0  0
  148.2526  151.4558  136.4982 H   0  0  0  0  0  0  0  0  0  0  0  0
  149.6943  152.5274  136.4982 H   0  0  0  0  0  0  0  0  0  0  0  0
  146.6031  153.4933  138.3372 H   0  0  0  0  0  0  0  0  0  0  0  0
  145.8032  154.3349  136.9666 H   0  0  0  0  0  0  0  0  0  0  0  0
  145.9353  152.5435  136.9666 H   0  0  0  0  0  0  0  0  0  0  0  0
  139.4932  157.2241  131.9702 H   0  0  0  0  0  0  0  0  0  0  0  0
  1  2  3  0
  2  3  1  0
  3  4  2  0
  4  5  1  0
  5  6  2  0
  6  7  1  0
  7  8  2  0
  8  9  1  0
  9 10  1  0
  9 11  2  0
  8 12  1  0
 12 13  1  0
 13 14  2  0
 13 15  1  0
 15 16  1  0
 16 17  1  0
 17 18  1  0
 18 19  1  0
 19 20  1  0
 20 21  1  0
 21 22  1  0
 22 23  1  0
 23 24  2  0
 24 25  1  0
 25 26  2  0
 26 27  1  0
 27 28  2  0
 22 29  1  0
 29 30  2  0
 30 31  1  0
 31 32  2  0
 32 33  1  0
 33 34  2  0
 22 35  1  0
 35 36  1  0
 35 37  1  0
 35 38  1  0
 12 39  1  0
 39 40  2  0
 40  3  1  0
 39  6  1  0
 28 23  1  0
 34 29  1  0
  1 41  1  0
  4 42  1  0
  5 43  1  0
  7 44  1  0
 10 45  1  0
 16 46  1  0
 16 47  1  0
 17 48  1  0
 17 49  1  0
 19 50  1  0
 19 51  1  0
 20 52  1  0
 20 53  1  0
 24 54  1  0
 25 55  1  0
 26 56  1  0
 27 57  1  0
 28 58  1  0
 30 59  1  0
 31 60  1  0
 32 61  1  0
 33 62  1  0
 34 63  1  0
 36 64  1  0
 36 65  1  0
 36 66  1  0
 37 67  1  0
 37 68  1  0
 37 69  1  0
 38 70  1  0
 38 71  1  0
 38 72  1  0
 40 73  1  0
M  CHG  1  10  -1
M  END
>  <UniqueID>  (98) 
97

>  <SMILES>  (98) 
C#Cc1ccc2cc(C([NH-])=O)n(C(=O)OCCOCCO[Si](c3ccccc3)(c3ccccc3)C(C)(C)C)c2c1

>  <Energy>  (98) 
98.71728159066544

>  <Genealogy>  (98) 
C#Cc1ccc2cc(C([NH-])=O)n(C(=O)OCCOCCO[Si](c3ccccc3)(c3ccccc3)C(C)(C)C)c2c1 (protonated)
C#Cc1ccc2cc(C([NH-])=O)n(C(=O)OCCOCCO[Si](c3ccccc3)(c3ccccc3)C(C)(C)C)c2c1 (3D coordinates assigned)
C#Cc1ccc2cc(C([NH-])=O)n(C(=O)OCCOCCO[Si](c3ccccc3)(c3ccccc3)C(C)(C)C)c2c1 (optimized conformer: 98.71728159066544 kcal/mol)

>  <smiles>  (98) 
C#Cc1ccc2cc(C(N)=O)n(C(=O)OCCOCCO[Si](c3ccccc3)(c3ccccc3)C(C)(C)C)c2c1

>  <score_type>  (98) 
oracle

>  <origin>  (98) 
adg

>  <m_score__min__energy>  (98) 
-10.880000000000001

>  <m_primary>  (98) 
energy

$$$$
99:0
     RDKit          3D

 33 34  0  0  0  0  0  0  0  0999 V2000
  142.0640  157.8750  136.0430 N   0  0  0  0  0  0  0  0  0  0  0  0
  142.4440  157.3390  134.7780 C   0  0  0  0  0  0  0  0  0  0  0  0
  141.6410  156.5950  134.1560 O   0  0  0  0  0  0  0  0  0  0  0  0
  143.7820  157.6380  134.2250 C   0  0  0  0  0  0  0  0  0  0  0  0
  144.7880  156.6860  134.0730 C   0  0  0  0  0  0  0  0  0  0  0  0
  145.8250  157.3460  133.4520 C   0  0  0  0  0  0  0  0  0  0  0  0
  147.0820  156.8880  133.0700 C   0  0  0  0  0  0  0  0  0  0  0  0
  147.9610  157.8020  132.4660 C   0  0  0  0  0  0  0  0  0  0  0  0
  147.5690  159.1480  132.2400 C   0  0  0  0  0  0  0  0  0  0  0  0
  148.5420  160.1310  131.6420 C   0  0  0  0  0  0  0  0  0  0  0  0
  149.8110  159.8630  132.1210 F   0  0  0  0  0  0  0  0  0  0  0  0
  148.1970  161.4280  131.9810 F   0  0  0  0  0  0  0  0  0  0  0  0
  148.5500  160.0320  130.2610 F   0  0  0  0  0  0  0  0  0  0  0  0
  146.2910  159.5790  132.6640 C   0  0  0  0  0  0  0  0  0  0  0  0
  145.4350  158.6450  133.2540 C   0  0  0  0  0  0  0  0  0  0  0  0
  144.1870  158.8410  133.7300 N   0  0  0  0  0  0  0  0  0  0  0  0
  143.4710  160.0860  133.7300 C   0  0  0  0  0  0  0  0  0  0  0  0
  144.1140  161.1700  133.7260 O   0  0  0  0  0  0  0  0  0  0  0  0
  141.9980  160.1060  133.7800 C   0  0  0  0  0  0  0  0  0  0  0  0
  141.4200  160.4800  134.8360 O   0  0  0  0  0  0  0  0  0  0  0  0
  141.2220  159.7120  132.6370 N   0  0  0  0  0  0  0  0  0  0  0  0
  139.7630  159.6650  132.6640 C   0  0  0  0  0  0  0  0  0  0  0  0
  139.2250  159.5480  131.2740 C   0  0  0  0  0  0  0  0  0  0  0  0
  140.0030  159.3360  130.3070 O   0  0  0  0  0  0  0  0  0  0  0  0
  137.8660  159.7100  131.0410 O   0  0  0  0  0  0  0  0  0  0  0  0
  141.9870  158.9060  136.1870 H   0  0  0  0  0  0  0  0  0  0  0  0
  144.7599  155.6310  134.3832 H   0  0  0  0  0  0  0  0  0  0  0  0
  147.3785  155.8418  133.2360 H   0  0  0  0  0  0  0  0  0  0  0  0
  148.9657  157.4710  132.1643 H   0  0  0  0  0  0  0  0  0  0  0  0
  145.9777  160.6252  132.5326 H   0  0  0  0  0  0  0  0  0  0  0  0
  141.7070  159.4450  131.7510 H   0  0  0  0  0  0  0  0  0  0  0  0
  139.4382  158.7952  133.2539 H   0  0  0  0  0  0  0  0  0  0  0  0
  139.3822  160.5908  133.1198 H   0  0  0  0  0  0  0  0  0  0  0  0
  1  2  1  0
  2  3  2  0
  2  4  1  0
  4  5  2  0
  5  6  1  0
  6  7  2  0
  7  8  1  0
  8  9  2  0
  9 10  1  0
 10 11  1  0
 10 12  1  0
 10 13  1  0
  9 14  1  0
 14 15  2  0
 15 16  1  0
 16 17  1  0
 17 18  2  0
 17 19  1  0
 19 20  2  0
 19 21  1  0
 21 22  1  0
 22 23  1  0
 23 24  2  0
 23 25  1  0
 16  4  1  0
 15  6  1  0
  1 26  1  0
  5 27  1  0
  7 28  1  0
  8 29  1  0
 14 30  1  0
 21 31  1  0
 22 32  1  0
 22 33  1  0
M  CHG  2   1  -1  25  -1
M  END
>  <UniqueID>  (99) 
98

>  <SMILES>  (99) 
[NH-]C(=O)c1cc2ccc(C(F)(F)F)cc2n1C(=O)C(=O)NCC(=O)[O-]

>  <Energy>  (99) 
70.19782859043386

>  <Genealogy>  (99) 
[NH-]C(=O)c1cc2ccc(C(F)(F)F)cc2n1C(=O)C(=O)NCC(=O)[O-] (protonated)
[NH-]C(=O)c1cc2ccc(C(F)(F)F)cc2n1C(=O)C(=O)NCC(=O)[O-] (3D coordinates assigned)
[NH-]C(=O)c1cc2ccc(C(F)(F)F)cc2n1C(=O)C(=O)NCC(=O)[O-] (optimized conformer: 70.19782859043386 kcal/mol)

>  <smiles>  (99) 
NC(=O)c1cc2ccc(C(F)(F)F)cc2n1C(=O)C(=O)NCC(=O)O

>  <score_type>  (99) 
oracle

>  <origin>  (99) 
adg

>  <m_score__min__energy>  (99) 
-6.21

>  <m_primary>  (99) 
energy

$$$$
