0:0
     RDKit          3D

 35 36  0  0  0  0  0  0  0  0999 V2000
  150.4130  151.2340  132.2640 C   0  0  0  0  0  0  0  0  0  0  0  0
  149.6190  152.1210  132.4580 C   0  0  0  0  0  0  0  0  0  0  0  0
  148.6910  153.1600  132.6860 C   0  0  0  0  0  0  0  0  0  0  0  0
  147.8980  154.0470  132.8790 C   0  0  0  0  0  0  0  0  0  0  0  0
  146.9520  155.1060  133.1110 C   0  0  0  0  0  0  0  0  0  0  0  0
  145.5950  154.7960  133.3650 C   0  0  0  0  0  0  0  0  0  0  0  0
  144.6620  155.8220  133.5990 C   0  0  0  0  0  0  0  0  0  0  0  0
  145.1180  157.1380  133.5700 C   0  0  0  0  0  0  0  0  0  0  0  0
  144.4420  158.3210  133.7720 C   0  0  0  0  0  0  0  0  0  0  0  0
  145.4020  159.3230  133.6320 C   0  0  0  0  0  0  0  0  0  0  0  0
  145.1150  160.7680  133.7370 C   0  0  0  0  0  0  0  0  0  0  0  0
  146.1570  161.6760  134.0910 N   0  0  0  0  0  0  0  0  0  0  0  0
  143.9550  161.2110  133.5260 O   0  0  0  0  0  0  0  0  0  0  0  0
  146.6190  158.7770  133.3620 N   0  0  0  0  0  0  0  0  0  0  0  0
  147.8630  159.4600  133.1510 C   0  0  0  0  0  0  0  0  0  0  0  0
  148.3680  160.1150  134.1020 O   0  0  0  0  0  0  0  0  0  0  0  0
  148.5160  159.4270  131.8650 N   0  0  0  0  0  0  0  0  0  0  0  0
  149.6190  158.4840  131.6510 C   0  0  0  0  0  0  0  0  0  0  0  0
  148.1200  160.3540  130.7970 C   0  0  0  0  0  0  0  0  0  0  0  0
  149.3300  160.9570  130.1550 C   0  0  0  0  0  0  0  0  0  0  0  0
  149.6420  162.1540  130.3870 O   0  0  0  0  0  0  0  0  0  0  0  0
  150.1040  160.2000  129.2840 O   0  0  0  0  0  0  0  0  0  0  0  0
  146.4300  157.4440  133.3190 C   0  0  0  0  0  0  0  0  0  0  0  0
  147.3820  156.4470  133.0870 C   0  0  0  0  0  0  0  0  0  0  0  0
  151.1371  150.4251  132.0871 H   0  0  0  0  0  0  0  0  0  0  0  0
  145.2677  153.7459  133.3796 H   0  0  0  0  0  0  0  0  0  0  0  0
  143.6049  155.5925  133.7987 H   0  0  0  0  0  0  0  0  0  0  0  0
  143.3726  158.4484  133.9960 H   0  0  0  0  0  0  0  0  0  0  0  0
  147.0230  161.7490  133.5140 H   0  0  0  0  0  0  0  0  0  0  0  0
  150.0097  158.1500  132.6235 H   0  0  0  0  0  0  0  0  0  0  0  0
  149.2536  157.6148  131.0845 H   0  0  0  0  0  0  0  0  0  0  0  0
  150.4209  158.9801  131.0845 H   0  0  0  0  0  0  0  0  0  0  0  0
  147.5416  159.8068  130.0380 H   0  0  0  0  0  0  0  0  0  0  0  0
  147.5079  161.1583  131.2311 H   0  0  0  0  0  0  0  0  0  0  0  0
  148.4341  156.7018  132.8918 H   0  0  0  0  0  0  0  0  0  0  0  0
  1  2  3  0
  2  3  1  0
  3  4  3  0
  4  5  1  0
  5  6  2  0
  6  7  1  0
  7  8  2  0
  8  9  1  0
  9 10  2  0
 10 11  1  0
 11 12  1  0
 11 13  2  0
 10 14  1  0
 14 15  1  0
 15 16  2  0
 15 17  1  0
 17 18  1  0
 17 19  1  0
 19 20  1  0
 20 21  2  0
 20 22  1  0
 14 23  1  0
 23 24  2  0
 24  5  1  0
 23  8  1  0
  1 25  1  0
  6 26  1  0
  7 27  1  0
  9 28  1  0
 12 29  1  0
 18 30  1  0
 18 31  1  0
 18 32  1  0
 19 33  1  0
 19 34  1  0
 24 35  1  0
M  CHG  2  12  -1  22  -1
M  END
>  <UniqueID>  (1) 
1

>  <SMILES>  (1) 
C#CC#Cc1ccc2cc(C([NH-])=O)n(C(=O)N(C)CC(=O)[O-])c2c1

>  <Energy>  (1) 
66.92293153216353

>  <Genealogy>  (1) 
C#CC#Cc1ccc2cc(C([NH-])=O)n(C(=O)N(C)CC(=O)[O-])c2c1 (protonated)
C#CC#Cc1ccc2cc(C([NH-])=O)n(C(=O)N(C)CC(=O)[O-])c2c1 (3D coordinates assigned)
C#CC#Cc1ccc2cc(C([NH-])=O)n(C(=O)N(C)CC(=O)[O-])c2c1 (optimized conformer: 66.92293153216353 kcal/mol)

>  <smiles>  (1) 
C#CC#Cc1ccc2cc(C(N)=O)n(C(=O)N(C)CC(=O)O)c2c1

>  <score_type>  (1) 
oracle

>  <origin>  (1) 
adg

>  <m_score__min__energy>  (1) 
-7.4299999999999997

>  <m_primary>  (1) 
energy

$$$$
1:0
     RDKit          3D

 45 47  0  0  0  0  0  0  0  0999 V2000
  148.8500  154.0830  138.1190 C   0  0  0  0  0  0  0  0  0  0  0  0
  148.3550  153.1430  137.0270 C   0  0  0  0  0  0  0  0  0  0  0  0
  147.0290  153.5010  136.6560 O   0  0  0  0  0  0  0  0  0  0  0  0
  146.7550  154.5100  135.7260 C   0  0  0  0  0  0  0  0  0  0  0  0
  147.5170  155.5060  135.6160 O   0  0  0  0  0  0  0  0  0  0  0  0
  145.5210  154.4310  134.8940 C   0  0  0  0  0  0  0  0  0  0  0  0
  145.1260  155.7490  134.5330 O   0  0  0  0  0  0  0  0  0  0  0  0
  145.7130  156.4630  133.4850 C   0  0  0  0  0  0  0  0  0  0  0  0
  146.3670  155.8600  132.5910 O   0  0  0  0  0  0  0  0  0  0  0  0
  145.5880  157.8940  133.4410 N   0  0  0  0  0  0  0  0  0  0  0  0
  146.5840  158.8150  133.3040 C   0  0  0  0  0  0  0  0  0  0  0  0
  148.0010  158.5160  133.0200 C   0  0  0  0  0  0  0  0  0  0  0  0
  148.5950  157.2860  133.4380 N   0  0  0  0  0  0  0  0  0  0  0  0
  148.6840  159.3370  132.3520 O   0  0  0  0  0  0  0  0  0  0  0  0
  146.0770  160.1090  133.4050 C   0  0  0  0  0  0  0  0  0  0  0  0
  144.7220  159.9550  133.5930 C   0  0  0  0  0  0  0  0  0  0  0  0
  143.7220  160.9140  133.7420 C   0  0  0  0  0  0  0  0  0  0  0  0
  142.4040  160.4670  133.9360 C   0  0  0  0  0  0  0  0  0  0  0  0
  142.1170  159.0800  134.0030 C   0  0  0  0  0  0  0  0  0  0  0  0
  140.7020  158.6020  134.1750 C   0  0  0  0  0  0  0  0  0  0  0  0
  139.9340  158.8760  132.9630 N   0  0  0  0  0  0  0  0  0  0  0  0
  139.2530  157.9890  132.2190 C   0  0  0  0  0  0  0  0  0  0  0  0
  138.7540  158.6540  131.1200 C   0  0  0  0  0  0  0  0  0  0  0  0
  139.1310  159.9510  131.1660 N   0  0  0  0  0  0  0  0  0  0  0  0
  139.8560  160.0470  132.3020 C   0  0  0  0  0  0  0  0  0  0  0  0
  143.1540  158.1390  133.8390 C   0  0  0  0  0  0  0  0  0  0  0  0
  144.4530  158.6100  133.6170 C   0  0  0  0  0  0  0  0  0  0  0  0
  148.6228  153.6515  139.1050 H   0  0  0  0  0  0  0  0  0  0  0  0
  149.9370  154.2196  138.0202 H   0  0  0  0  0  0  0  0  0  0  0  0
  148.3476  155.0566  138.0202 H   0  0  0  0  0  0  0  0  0  0  0  0
  149.0144  153.2208  136.1500 H   0  0  0  0  0  0  0  0  0  0  0  0
  148.3634  152.1091  137.4026 H   0  0  0  0  0  0  0  0  0  0  0  0
  145.7243  153.8443  133.9860 H   0  0  0  0  0  0  0  0  0  0  0  0
  144.7167  153.9429  135.4640 H   0  0  0  0  0  0  0  0  0  0  0  0
  148.0140  156.5130  133.8340 H   0  0  0  0  0  0  0  0  0  0  0  0
  149.6170  157.1230  133.2980 H   0  0  0  0  0  0  0  0  0  0  0  0
  146.6396  161.0525  133.3469 H   0  0  0  0  0  0  0  0  0  0  0  0
  143.9572  161.9881  133.7088 H   0  0  0  0  0  0  0  0  0  0  0  0
  141.5887  161.1986  134.0367 H   0  0  0  0  0  0  0  0  0  0  0  0
  140.7038  157.5192  134.3687 H   0  0  0  0  0  0  0  0  0  0  0  0
  140.2416  159.1306  135.0228 H   0  0  0  0  0  0  0  0  0  0  0  0
  139.1176  156.9213  132.4465 H   0  0  0  0  0  0  0  0  0  0  0  0
  138.1426  158.1989  130.3269 H   0  0  0  0  0  0  0  0  0  0  0  0
  140.3296  160.9774  132.6484 H   0  0  0  0  0  0  0  0  0  0  0  0
  142.9469  157.0596  133.8845 H   0  0  0  0  0  0  0  0  0  0  0  0
  1  2  1  0
  2  3  1  0
  3  4  1  0
  4  5  2  0
  4  6  1  0
  6  7  1  0
  7  8  1  0
  8  9  2  0
  8 10  1  0
 10 11  1  0
 11 12  1  0
 12 13  1  0
 12 14  2  0
 11 15  2  0
 15 16  1  0
 16 17  2  0
 17 18  1  0
 18 19  2  0
 19 20  1  0
 20 21  1  0
 21 22  1  0
 22 23  2  0
 23 24  1  0
 24 25  2  0
 19 26  1  0
 26 27  2  0
 27 10  1  0
 27 16  1  0
 25 21  1  0
  1 28  1  0
  1 29  1  0
  1 30  1  0
  2 31  1  0
  2 32  1  0
  6 33  1  0
  6 34  1  0
 13 35  1  0
 13 36  1  0
 15 37  1  0
 17 38  1  0
 18 39  1  0
 20 40  1  0
 20 41  1  0
 22 42  1  0
 23 43  1  0
 25 44  1  0
 26 45  1  0
M  END
>  <UniqueID>  (2) 
2

>  <SMILES>  (2) 
CCOC(=O)COC(=O)n1c(C(N)=O)cc2ccc(Cn3ccnc3)cc21

>  <Energy>  (2) 
104.39773537954198

>  <Genealogy>  (2) 
CCOC(=O)COC(=O)n1c(C(N)=O)cc2ccc(Cn3ccnc3)cc21 (3D coordinates assigned)
CCOC(=O)COC(=O)n1c(C(N)=O)cc2ccc(Cn3ccnc3)cc21 (optimized conformer: 104.39773537954198 kcal/mol)

>  <smiles>  (2) 
CCOC(=O)COC(=O)n1c(C(N)=O)cc2ccc(Cn3ccnc3)cc21

>  <score_type>  (2) 
oracle

>  <origin>  (2) 
adg

>  <m_score__min__energy>  (2) 
-7.1500000000000004

>  <m_primary>  (2) 
energy

$$$$
2:0
     RDKit          3D

 41 42  0  0  0  0  0  0  0  0999 V2000
  145.4260  152.7670  132.5630 C   0  0  0  0  0  0  0  0  0  0  0  0
  144.3390  153.8570  132.5060 C   0  0  0  0  0  0  0  0  0  0  0  0
  142.9460  153.2520  132.7640 C   0  0  0  0  0  0  0  0  0  0  0  0
  144.3510  154.4980  131.1110 C   0  0  0  0  0  0  0  0  0  0  0  0
  144.6190  154.8980  133.4520 O   0  0  0  0  0  0  0  0  0  0  0  0
  145.8060  155.0610  134.1850 C   0  0  0  0  0  0  0  0  0  0  0  0
  145.9320  154.5580  135.3330 O   0  0  0  0  0  0  0  0  0  0  0  0
  146.8970  155.7870  133.6010 N   0  0  0  0  0  0  0  0  0  0  0  0
  148.1020  155.3030  133.1850 C   0  0  0  0  0  0  0  0  0  0  0  0
  148.5940  153.9220  133.3750 C   0  0  0  0  0  0  0  0  0  0  0  0
  148.2650  153.2100  134.5660 N   0  0  0  0  0  0  0  0  0  0  0  0
  149.2740  153.3500  132.4830 O   0  0  0  0  0  0  0  0  0  0  0  0
  148.8670  156.3190  132.6160 C   0  0  0  0  0  0  0  0  0  0  0  0
  148.0900  157.4520  132.7030 C   0  0  0  0  0  0  0  0  0  0  0  0
  148.3530  158.7520  132.2840 C   0  0  0  0  0  0  0  0  0  0  0  0
  147.3570  159.7230  132.4790 C   0  0  0  0  0  0  0  0  0  0  0  0
  146.1150  159.3790  133.0810 C   0  0  0  0  0  0  0  0  0  0  0  0
  145.0760  160.3570  133.2790 N   0  0  0  0  0  0  0  0  0  0  0  0
  143.7620  160.0280  133.8330 C   0  0  0  0  0  0  0  0  0  0  0  0
  142.8380  161.2020  133.7350 C   0  0  0  0  0  0  0  0  0  0  0  0
  141.5970  161.0440  133.8690 O   0  0  0  0  0  0  0  0  0  0  0  0
  143.3450  162.4620  133.4400 O   0  0  0  0  0  0  0  0  0  0  0  0
  145.8900  158.0460  133.4910 C   0  0  0  0  0  0  0  0  0  0  0  0
  146.9080  157.1050  133.3020 C   0  0  0  0  0  0  0  0  0  0  0  0
  145.6576  152.5347  133.6130 H   0  0  0  0  0  0  0  0  0  0  0  0
  145.0623  151.8597  132.0584 H   0  0  0  0  0  0  0  0  0  0  0  0
  146.3342  153.1282  132.0584 H   0  0  0  0  0  0  0  0  0  0  0  0
  142.7738  153.1772  133.8479 H   0  0  0  0  0  0  0  0  0  0  0  0
  142.1770  153.8972  132.3142 H   0  0  0  0  0  0  0  0  0  0  0  0
  142.8926  152.2496  132.3142 H   0  0  0  0  0  0  0  0  0  0  0  0
  144.3715  155.5933  131.2109 H   0  0  0  0  0  0  0  0  0  0  0  0
  145.2430  154.1632  130.5613 H   0  0  0  0  0  0  0  0  0  0  0  0
  143.4471  154.1968  130.5613 H   0  0  0  0  0  0  0  0  0  0  0  0
  147.2750  152.9640  134.7870 H   0  0  0  0  0  0  0  0  0  0  0  0
  149.8769  156.2339  132.1883 H   0  0  0  0  0  0  0  0  0  0  0  0
  149.3128  159.0120  131.8137 H   0  0  0  0  0  0  0  0  0  0  0  0
  147.5394  160.7607  132.1628 H   0  0  0  0  0  0  0  0  0  0  0  0
  145.2780  161.3480  133.0120 H   0  0  0  0  0  0  0  0  0  0  0  0
  143.3344  159.1840  133.2718 H   0  0  0  0  0  0  0  0  0  0  0  0
  143.8819  159.7595  134.8930 H   0  0  0  0  0  0  0  0  0  0  0  0
  144.9338  157.7538  133.9496 H   0  0  0  0  0  0  0  0  0  0  0  0
  1  2  1  0
  2  3  1  0
  2  4  1  0
  2  5  1  0
  5  6  1  0
  6  7  2  0
  6  8  1  0
  8  9  1  0
  9 10  1  0
 10 11  1  0
 10 12  2  0
  9 13  2  0
 13 14  1  0
 14 15  2  0
 15 16  1  0
 16 17  2  0
 17 18  1  0
 18 19  1  0
 19 20  1  0
 20 21  2  0
 20 22  1  0
 17 23  1  0
 23 24  2  0
 24  8  1  0
 24 14  1  0
  1 25  1  0
  1 26  1  0
  1 27  1  0
  3 28  1  0
  3 29  1  0
  3 30  1  0
  4 31  1  0
  4 32  1  0
  4 33  1  0
 11 34  1  0
 13 35  1  0
 15 36  1  0
 16 37  1  0
 18 38  1  0
 19 39  1  0
 19 40  1  0
 23 41  1  0
M  CHG  2  11  -1  22  -1
M  END
>  <UniqueID>  (3) 
3

>  <SMILES>  (3) 
CC(C)(C)OC(=O)n1c(C([NH-])=O)cc2ccc(NCC(=O)[O-])cc21

>  <Energy>  (3) 
73.59644070350417

>  <Genealogy>  (3) 
CC(C)(C)OC(=O)n1c(C([NH-])=O)cc2ccc(NCC(=O)[O-])cc21 (protonated)
CC(C)(C)OC(=O)n1c(C([NH-])=O)cc2ccc(NCC(=O)[O-])cc21 (3D coordinates assigned)
CC(C)(C)OC(=O)n1c(C([NH-])=O)cc2ccc(NCC(=O)[O-])cc21 (optimized conformer: 73.59644070350417 kcal/mol)

>  <smiles>  (3) 
CC(C)(C)OC(=O)n1c(C(N)=O)cc2ccc(NCC(=O)O)cc21

>  <score_type>  (3) 
oracle

>  <origin>  (3) 
adg

>  <m_score__min__energy>  (3) 
-6.8499999999999996

>  <m_primary>  (3) 
energy

$$$$
3:0
     RDKit          3D

 32 33  0  0  0  0  0  0  0  0999 V2000
  142.9580  160.7640  133.3950 N   0  0  0  0  0  0  0  0  0  0  0  0
  144.3230  160.8810  133.7840 C   0  0  0  0  0  0  0  0  0  0  0  0
  144.6850  161.8700  134.4760 O   0  0  0  0  0  0  0  0  0  0  0  0
  145.3080  159.8340  133.4360 C   0  0  0  0  0  0  0  0  0  0  0  0
  146.6440  160.1040  133.1490 C   0  0  0  0  0  0  0  0  0  0  0  0
  147.2330  158.8760  132.9610 C   0  0  0  0  0  0  0  0  0  0  0  0
  148.5460  158.5530  132.6380 C   0  0  0  0  0  0  0  0  0  0  0  0
  148.8720  157.1970  132.4700 C   0  0  0  0  0  0  0  0  0  0  0  0
  147.8810  156.1880  132.6190 C   0  0  0  0  0  0  0  0  0  0  0  0
  148.1900  154.7940  132.4380 N   0  0  0  0  0  0  0  0  0  0  0  0
  148.4900  153.8880  133.5500 C   0  0  0  0  0  0  0  0  0  0  0  0
  149.0820  152.5670  133.0510 C   0  0  0  0  0  0  0  0  0  0  0  0
  149.5550  152.7020  131.6760 N   0  0  0  0  0  0  0  0  0  0  0  0
  146.5570  156.5610  132.9450 C   0  0  0  0  0  0  0  0  0  0  0  0
  146.2670  157.9180  133.1260 C   0  0  0  0  0  0  0  0  0  0  0  0
  145.0770  158.4910  133.4170 N   0  0  0  0  0  0  0  0  0  0  0  0
  143.8220  157.8100  133.5790 C   0  0  0  0  0  0  0  0  0  0  0  0
  142.7800  157.9880  132.6230 N   0  0  0  0  0  0  0  0  0  0  0  0
  143.6320  157.0620  134.5750 O   0  0  0  0  0  0  0  0  0  0  0  0
  142.6790  160.1620  132.5890 H   0  0  0  0  0  0  0  0  0  0  0  0
  147.1258  161.0909  133.0861 H   0  0  0  0  0  0  0  0  0  0  0  0
  149.3081  159.3370  132.5174 H   0  0  0  0  0  0  0  0  0  0  0  0
  149.9049  156.9126  132.2205 H   0  0  0  0  0  0  0  0  0  0  0  0
  148.1990  154.4150  131.4620 H   0  0  0  0  0  0  0  0  0  0  0  0
  149.2135  154.3732  134.2216 H   0  0  0  0  0  0  0  0  0  0  0  0
  147.5515  153.6682  134.0800 H   0  0  0  0  0  0  0  0  0  0  0  0
  149.9255  152.2821  133.6970 H   0  0  0  0  0  0  0  0  0  0  0  0
  148.3001  151.7939  133.0825 H   0  0  0  0  0  0  0  0  0  0  0  0
  150.3700  153.3580  131.6730 H   0  0  0  0  0  0  0  0  0  0  0  0
  148.7990  153.1660  131.1230 H   0  0  0  0  0  0  0  0  0  0  0  0
  145.7705  155.7998  133.0542 H   0  0  0  0  0  0  0  0  0  0  0  0
  142.5500  158.9360  132.2500 H   0  0  0  0  0  0  0  0  0  0  0  0
  1  2  1  0
  2  3  2  0
  2  4  1  0
  4  5  2  0
  5  6  1  0
  6  7  2  0
  7  8  1  0
  8  9  2  0
  9 10  1  0
 10 11  1  0
 11 12  1  0
 12 13  1  0
  9 14  1  0
 14 15  2  0
 15 16  1  0
 16 17  1  0
 17 18  1  0
 17 19  2  0
 16  4  1  0
 15  6  1  0
  1 20  1  0
  5 21  1  0
  7 22  1  0
  8 23  1  0
 10 24  1  0
 11 25  1  0
 11 26  1  0
 12 27  1  0
 12 28  1  0
 13 29  1  0
 13 30  1  0
 14 31  1  0
 18 32  1  0
M  CHG  2   1  -1  18  -1
M  END
>  <UniqueID>  (4) 
4

>  <SMILES>  (4) 
[NH-]C(=O)c1cc2ccc(NCCN)cc2n1C([NH-])=O

>  <Energy>  (4) 
67.78799024368982

>  <Genealogy>  (4) 
[NH-]C(=O)c1cc2ccc(NCCN)cc2n1C([NH-])=O (protonated)
[NH-]C(=O)c1cc2ccc(NCCN)cc2n1C([NH-])=O (3D coordinates assigned)
[NH-]C(=O)c1cc2ccc(NCCN)cc2n1C([NH-])=O (optimized conformer: 67.78799024368982 kcal/mol)

>  <smiles>  (4) 
NCCNc1ccc2cc(C(N)=O)n(C(N)=O)c2c1

>  <score_type>  (4) 
oracle

>  <origin>  (4) 
adg

>  <m_score__min__energy>  (4) 
-6.4100000000000001

>  <m_primary>  (4) 
energy

$$$$
4:0
     RDKit          3D

 47 51  0  0  0  0  0  0  0  0999 V2000
  141.0120  156.0100  137.2430 C   0  0  0  0  0  0  0  0  0  0  0  0
  140.3330  157.3280  137.0860 C   0  0  0  0  0  0  0  0  0  0  0  0
  140.6450  158.2810  137.8490 O   0  0  0  0  0  0  0  0  0  0  0  0
  139.3970  157.4940  136.0570 O   0  0  0  0  0  0  0  0  0  0  0  0
  139.6700  157.3590  134.6890 C   0  0  0  0  0  0  0  0  0  0  0  0
  138.7330  157.2280  133.8540 O   0  0  0  0  0  0  0  0  0  0  0  0
  141.0310  157.3960  134.2330 N   0  0  0  0  0  0  0  0  0  0  0  0
  141.9020  158.4450  134.2740 C   0  0  0  0  0  0  0  0  0  0  0  0
  141.5740  159.8330  134.6600 C   0  0  0  0  0  0  0  0  0  0  0  0
  140.9030  160.1150  135.8860 N   0  0  0  0  0  0  0  0  0  0  0  0
  141.8460  160.7790  133.8730 O   0  0  0  0  0  0  0  0  0  0  0  0
  143.1580  158.0540  133.8140 C   0  0  0  0  0  0  0  0  0  0  0  0
  143.0260  156.7260  133.4770 C   0  0  0  0  0  0  0  0  0  0  0  0
  143.9660  155.8350  132.9740 C   0  0  0  0  0  0  0  0  0  0  0  0
  143.5620  154.5100  132.7410 C   0  0  0  0  0  0  0  0  0  0  0  0
  142.2330  154.0940  133.0220 C   0  0  0  0  0  0  0  0  0  0  0  0
  141.8270  152.7280  132.7880 N   0  0  0  0  0  0  0  0  0  0  0  0
  142.7570  151.5940  132.6570 C   0  0  0  0  0  0  0  0  0  0  0  0
  141.8190  150.4150  132.7930 C   0  0  2  0  0  0  0  0  0  0  0  0
  142.0080  149.0300  132.2230 C   0  0  0  0  0  0  0  0  0  0  0  0
  140.5550  148.4900  132.2820 C   0  0  2  0  0  0  0  0  0  0  0  0
  139.6170  148.7110  131.1100 C   0  0  0  0  0  0  0  0  0  0  0  0
  139.6290  149.7340  132.2420 C   0  0  2  0  0  0  0  0  0  0  0  0
  140.5990  150.8930  132.0800 C   0  0  1  0  0  0  0  0  0  0  0  0
  140.4290  152.2850  132.6540 C   0  0  0  0  0  0  0  0  0  0  0  0
  141.3090  155.0350  133.5370 C   0  0  0  0  0  0  0  0  0  0  0  0
  141.7350  156.3530  133.7390 C   0  0  0  0  0  0  0  0  0  0  0  0
  141.1290  155.7829  138.3129 H   0  0  0  0  0  0  0  0  0  0  0  0
  140.4056  155.2260  136.7659 H   0  0  0  0  0  0  0  0  0  0  0  0
  142.0024  156.0486  136.7659 H   0  0  0  0  0  0  0  0  0  0  0  0
  140.0840  159.5450  136.1920 H   0  0  0  0  0  0  0  0  0  0  0  0
  144.0628  158.6748  133.7366 H   0  0  0  0  0  0  0  0  0  0  0  0
  144.9965  156.1578  132.7644 H   0  0  0  0  0  0  0  0  0  0  0  0
  144.2837  153.7854  132.3359 H   0  0  0  0  0  0  0  0  0  0  0  0
  143.2586  151.5971  131.6780 H   0  0  0  0  0  0  0  0  0  0  0  0
  143.5772  151.6005  133.3900 H   0  0  0  0  0  0  0  0  0  0  0  0
  141.9017  150.2073  133.8700 H   0  0  0  0  0  0  0  0  0  0  0  0
  142.3850  149.0653  131.1902 H   0  0  0  0  0  0  0  0  0  0  0  0
  142.7448  148.4137  132.7591 H   0  0  0  0  0  0  0  0  0  0  0  0
  140.7504  147.5805  132.8690 H   0  0  0  0  0  0  0  0  0  0  0  0
  140.0269  148.9807  130.1255 H   0  0  0  0  0  0  0  0  0  0  0  0
  138.8351  148.1081  130.6251 H   0  0  0  0  0  0  0  0  0  0  0  0
  138.8054  150.2104  132.7941 H   0  0  0  0  0  0  0  0  0  0  0  0
  140.5232  151.0775  130.9982 H   0  0  0  0  0  0  0  0  0  0  0  0
  139.8667  152.9354  131.9678 H   0  0  0  0  0  0  0  0  0  0  0  0
  139.8607  152.3125  133.5954 H   0  0  0  0  0  0  0  0  0  0  0  0
  140.2771  154.7364  133.7736 H   0  0  0  0  0  0  0  0  0  0  0  0
  1  2  1  0
  2  3  2  0
  2  4  1  0
  4  5  1  0
  5  6  2  0
  5  7  1  0
  7  8  1  0
  8  9  1  0
  9 10  1  0
  9 11  2  0
  8 12  2  0
 12 13  1  0
 13 14  2  0
 14 15  1  0
 15 16  2  0
 16 17  1  0
 17 18  1  0
 18 19  1  0
 19 20  1  0
 20 21  1  0
 21 22  1  0
 22 23  1  0
 23 24  1  0
 24 25  1  0
 16 26  1  0
 26 27  2  0
 27  7  1  0
 27 13  1  0
 25 17  1  0
 24 19  1  0
 23 21  1  0
  1 28  1  0
  1 29  1  0
  1 30  1  0
 10 31  1  0
 12 32  1  0
 14 33  1  0
 15 34  1  0
 18 35  1  0
 18 36  1  0
 19 37  1  1
 20 38  1  0
 20 39  1  0
 21 40  1  1
 22 41  1  0
 22 42  1  0
 23 43  1  1
 24 44  1  6
 25 45  1  0
 25 46  1  0
 26 47  1  0
M  CHG  1  10  -1
M  END
>  <UniqueID>  (5) 
5

>  <SMILES>  (5) 
CC(=O)OC(=O)n1c(C([NH-])=O)cc2ccc(N3C[C@@H]4C[C@@H]5C[C@@H]5[C@H]4C3)cc21

>  <Energy>  (5) 
389.33220604873424

>  <Genealogy>  (5) 
CC(=O)OC(=O)n1c(C([NH-])=O)cc2ccc(N3C[C@@H]4C[C@@H]5CC5[C@H]4C3)cc21 (protonated)
CC(=O)OC(=O)n1c(C([NH-])=O)cc2ccc(N3C[C@@H]4C[C@@H]5C[C@@H]5[C@H]4C3)cc21 (chirality)
CC(=O)OC(=O)n1c(C([NH-])=O)cc2ccc(N3C[C@@H]4C[C@@H]5C[C@@H]5[C@H]4C3)cc21 (3D coordinates assigned)
CC(=O)OC(=O)n1c(C([NH-])=O)cc2ccc(N3C[C@@H]4C[C@@H]5C[C@@H]5[C@H]4C3)cc21 (nonaromatic ring conformer: 389.33220604873424 kcal/mol)

>  <smiles>  (5) 
CC(=O)OC(=O)n1c(C(N)=O)cc2ccc(N3C[C@@H]4C[C@@H]5CC5[C@H]4C3)cc21

>  <score_type>  (5) 
oracle

>  <origin>  (5) 
adg

>  <m_score__min__energy>  (5) 
-9.0099999999999998

>  <m_primary>  (5) 
energy

$$$$
5:0
     RDKit          3D

 55 56  0  0  0  0  0  0  0  0999 V2000
  149.7440  159.5460  132.0550 C   0  0  0  0  0  0  0  0  0  0  0  0
  148.7770  160.1490  131.0200 C   0  0  0  0  0  0  0  0  0  0  0  0
  148.8780  159.3410  129.7180 C   0  0  0  0  0  0  0  0  0  0  0  0
  149.1430  161.6160  130.7250 C   0  0  0  0  0  0  0  0  0  0  0  0
  147.4190  160.0490  131.4760 O   0  0  0  0  0  0  0  0  0  0  0  0
  146.9980  159.8790  132.8040 C   0  0  0  0  0  0  0  0  0  0  0  0
  147.4440  160.6130  133.7260 O   0  0  0  0  0  0  0  0  0  0  0  0
  146.0290  158.8670  133.1110 N   0  0  0  0  0  0  0  0  0  0  0  0
  144.7970  159.0310  133.6710 C   0  0  0  0  0  0  0  0  0  0  0  0
  144.1290  160.3220  133.9450 C   0  0  0  0  0  0  0  0  0  0  0  0
  144.8610  161.5450  133.9410 N   0  0  0  0  0  0  0  0  0  0  0  0
  142.8840  160.3460  134.1490 O   0  0  0  0  0  0  0  0  0  0  0  0
  144.1970  157.7940  133.8980 C   0  0  0  0  0  0  0  0  0  0  0  0
  145.1070  156.8590  133.4550 C   0  0  0  0  0  0  0  0  0  0  0  0
  145.0380  155.4680  133.4610 C   0  0  0  0  0  0  0  0  0  0  0  0
  146.1460  154.7520  132.9770 C   0  0  0  0  0  0  0  0  0  0  0  0
  147.3000  155.4330  132.5080 C   0  0  0  0  0  0  0  0  0  0  0  0
  148.4300  154.6840  132.0110 N   0  0  0  0  0  0  0  0  0  0  0  0
  149.0270  153.8420  133.0610 C   0  0  0  0  0  0  0  0  0  0  0  0
  148.1930  152.5740  133.3360 C   0  0  0  0  0  0  0  0  0  0  0  0
  148.4110  151.4810  132.2770 C   0  0  0  0  0  0  0  0  0  0  0  0
  149.8890  151.0920  132.1230 C   0  0  0  0  0  0  0  0  0  0  0  0
  150.2030  150.7410  130.6940 C   0  0  0  0  0  0  0  0  0  0  0  0
  149.9980  151.5620  129.8130 O   0  0  0  0  0  0  0  0  0  0  0  0
  150.7310  149.3720  130.3500 C   0  0  0  0  0  0  0  0  0  0  0  0
  151.5140  149.4040  129.1870 O   0  0  0  0  0  0  0  0  0  0  0  0
  147.3270  156.8480  132.5110 C   0  0  0  0  0  0  0  0  0  0  0  0
  146.2030  157.5340  132.9850 C   0  0  0  0  0  0  0  0  0  0  0  0
  149.3827  159.7713  133.0692 H   0  0  0  0  0  0  0  0  0  0  0  0
  149.7949  158.4558  131.9176 H   0  0  0  0  0  0  0  0  0  0  0  0
  150.7454  159.9800  131.9176 H   0  0  0  0  0  0  0  0  0  0  0  0
  149.0112  158.2756  129.9570 H   0  0  0  0  0  0  0  0  0  0  0  0
  147.9564  159.4729  129.1322 H   0  0  0  0  0  0  0  0  0  0  0  0
  149.7388  159.6957  129.1322 H   0  0  0  0  0  0  0  0  0  0  0  0
  149.2782  162.1579  131.6727 H   0  0  0  0  0  0  0  0  0  0  0  0
  150.0775  161.6514  130.1458 H   0  0  0  0  0  0  0  0  0  0  0  0
  148.3347  162.0862  130.1458 H   0  0  0  0  0  0  0  0  0  0  0  0
  145.6390  161.7010  133.2640 H   0  0  0  0  0  0  0  0  0  0  0  0
  143.2067  157.6042  134.3377 H   0  0  0  0  0  0  0  0  0  0  0  0
  144.1440  154.9461  133.8330 H   0  0  0  0  0  0  0  0  0  0  0  0
  146.1189  153.6524  132.9614 H   0  0  0  0  0  0  0  0  0  0  0  0
  149.1570  155.3570  131.6720 H   0  0  0  0  0  0  0  0  0  0  0  0
  148.1550  154.0950  131.1910 H   0  0  0  0  0  0  0  0  0  0  0  0
  150.0356  153.5403  132.7422 H   0  0  0  0  0  0  0  0  0  0  0  0
  149.0599  154.4321  133.9887 H   0  0  0  0  0  0  0  0  0  0  0  0
  148.4766  152.1725  134.3201 H   0  0  0  0  0  0  0  0  0  0  0  0
  147.1314  152.8606  133.3050 H   0  0  0  0  0  0  0  0  0  0  0  0
  147.8406  150.5875  132.5707 H   0  0  0  0  0  0  0  0  0  0  0  0
  148.0701  151.8814  131.3108 H   0  0  0  0  0  0  0  0  0  0  0  0
  150.5190  151.9387  132.4332 H   0  0  0  0  0  0  0  0  0  0  0  0
  150.0901  150.2138  132.7541 H   0  0  0  0  0  0  0  0  0  0  0  0
  151.3454  149.0048  131.1853 H   0  0  0  0  0  0  0  0  0  0  0  0
  149.8747  148.7046  130.1731 H   0  0  0  0  0  0  0  0  0  0  0  0
  151.4130  150.3120  128.8020 H   0  0  0  0  0  0  0  0  0  0  0  0
  148.2100  157.3954  132.1495 H   0  0  0  0  0  0  0  0  0  0  0  0
  1  2  1  0
  2  3  1  0
  2  4  1  0
  2  5  1  0
  5  6  1  0
  6  7  2  0
  6  8  1  0
  8  9  1  0
  9 10  1  0
 10 11  1  0
 10 12  2  0
  9 13  2  0
 13 14  1  0
 14 15  2  0
 15 16  1  0
 16 17  2  0
 17 18  1  0
 18 19  1  0
 19 20  1  0
 20 21  1  0
 21 22  1  0
 22 23  1  0
 23 24  2  0
 23 25  1  0
 25 26  1  0
 17 27  1  0
 27 28  2  0
 28  8  1  0
 28 14  1  0
  1 29  1  0
  1 30  1  0
  1 31  1  0
  3 32  1  0
  3 33  1  0
  3 34  1  0
  4 35  1  0
  4 36  1  0
  4 37  1  0
 11 38  1  0
 13 39  1  0
 15 40  1  0
 16 41  1  0
 18 42  1  0
 18 43  1  0
 19 44  1  0
 19 45  1  0
 20 46  1  0
 20 47  1  0
 21 48  1  0
 21 49  1  0
 22 50  1  0
 22 51  1  0
 25 52  1  0
 25 53  1  0
 26 54  1  0
 27 55  1  0
M  CHG  2  11  -1  18   1
M  END
>  <UniqueID>  (6) 
6

>  <SMILES>  (6) 
CC(C)(C)OC(=O)n1c(C([NH-])=O)cc2ccc([NH2+]CCCCC(=O)CO)cc21

>  <Energy>  (6) 
82.42266875750221

>  <Genealogy>  (6) 
CC(C)(C)OC(=O)n1c(C([NH-])=O)cc2ccc([NH2+]CCCCC(=O)CO)cc21 (protonated)
CC(C)(C)OC(=O)n1c(C([NH-])=O)cc2ccc([NH2+]CCCCC(=O)CO)cc21 (3D coordinates assigned)
CC(C)(C)OC(=O)n1c(C([NH-])=O)cc2ccc([NH2+]CCCCC(=O)CO)cc21 (optimized conformer: 82.42266875750221 kcal/mol)

>  <smiles>  (6) 
CC(C)(C)OC(=O)n1c(C(N)=O)cc2ccc(NCCCCC(=O)CO)cc21

>  <score_type>  (6) 
oracle

>  <origin>  (6) 
adg

>  <m_score__min__energy>  (6) 
-8.0299999999999994

>  <m_primary>  (6) 
energy

$$$$
6:0
     RDKit          3D

 52 53  0  0  0  0  0  0  0  0999 V2000
  138.5460  160.3290  130.7800 C   0  0  0  0  0  0  0  0  0  0  0  0
  139.0590  158.9990  131.3140 C   0  0  0  0  0  0  0  0  0  0  0  0
  139.9660  159.2100  132.3940 O   0  0  0  0  0  0  0  0  0  0  0  0
  140.0790  158.3460  133.4880 C   0  0  0  0  0  0  0  0  0  0  0  0
  139.1430  158.2470  134.3300 O   0  0  0  0  0  0  0  0  0  0  0  0
  141.3150  157.5020  133.6330 C   0  0  1  0  0  0  0  0  0  0  0  0
  142.1050  157.5640  132.4030 N   0  0  0  0  0  0  0  0  0  0  0  0
  142.1650  157.9750  134.8290 C   0  0  0  0  0  0  0  0  0  0  0  0
  143.4040  158.7100  134.3810 C   0  0  0  0  0  0  0  0  0  0  0  0
  143.4060  160.1250  134.3180 C   0  0  0  0  0  0  0  0  0  0  0  0
  144.5370  160.8200  133.8580 C   0  0  0  0  0  0  0  0  0  0  0  0
  145.6410  160.0750  133.4550 C   0  0  0  0  0  0  0  0  0  0  0  0
  146.8650  160.4910  132.9840 C   0  0  0  0  0  0  0  0  0  0  0  0
  147.5800  159.3230  132.7360 C   0  0  0  0  0  0  0  0  0  0  0  0
  148.9340  159.3070  132.1480 C   0  0  0  0  0  0  0  0  0  0  0  0
  149.9270  158.3860  132.5990 N   0  0  0  0  0  0  0  0  0  0  0  0
  149.2010  160.0830  131.1920 O   0  0  0  0  0  0  0  0  0  0  0  0
  146.8370  158.2260  133.0550 N   0  0  0  0  0  0  0  0  0  0  0  0
  147.2540  156.8510  133.0410 C   0  0  0  0  0  0  0  0  0  0  0  0
  148.1530  156.4810  132.2400 O   0  0  0  0  0  0  0  0  0  0  0  0
  146.6550  155.9400  133.9230 O   0  0  0  0  0  0  0  0  0  0  0  0
  145.9840  154.7240  133.5660 C   0  0  0  0  0  0  0  0  0  0  0  0
  147.0700  153.6680  133.3040 C   0  0  0  0  0  0  0  0  0  0  0  0
  145.0880  154.2400  134.7220 C   0  0  0  0  0  0  0  0  0  0  0  0
  145.1580  154.9190  132.2800 C   0  0  0  0  0  0  0  0  0  0  0  0
  145.6500  158.7030  133.4910 C   0  0  0  0  0  0  0  0  0  0  0  0
  144.5440  157.9880  133.9670 C   0  0  0  0  0  0  0  0  0  0  0  0
  138.2915  160.9888  131.6226 H   0  0  0  0  0  0  0  0  0  0  0  0
  139.3259  160.8029  130.1658 H   0  0  0  0  0  0  0  0  0  0  0  0
  137.6499  160.1564  130.1658 H   0  0  0  0  0  0  0  0  0  0  0  0
  138.2080  158.3988  131.6682 H   0  0  0  0  0  0  0  0  0  0  0  0
  139.5857  158.4708  130.5056 H   0  0  0  0  0  0  0  0  0  0  0  0
  141.0074  156.4621  133.8172 H   0  0  0  0  0  0  0  0  0  0  0  0
  141.9170  156.6980  131.8460 H   0  0  0  0  0  0  0  0  0  0  0  0
  141.7490  158.3600  131.8240 H   0  0  0  0  0  0  0  0  0  0  0  0
  141.5582  158.6477  135.4530 H   0  0  0  0  0  0  0  0  0  0  0  0
  142.4809  157.0869  135.3959 H   0  0  0  0  0  0  0  0  0  0  0  0
  142.5131  160.6853  134.6324 H   0  0  0  0  0  0  0  0  0  0  0  0
  144.5494  161.9192  133.8177 H   0  0  0  0  0  0  0  0  0  0  0  0
  147.2058  161.5262  132.8352 H   0  0  0  0  0  0  0  0  0  0  0  0
  149.6880  157.6160  133.2640 H   0  0  0  0  0  0  0  0  0  0  0  0
  150.8920  158.4170  132.2000 H   0  0  0  0  0  0  0  0  0  0  0  0
  147.4558  153.2929  134.2634 H   0  0  0  0  0  0  0  0  0  0  0  0
  146.6396  152.8338  132.7306 H   0  0  0  0  0  0  0  0  0  0  0  0
  147.8918  154.1217  132.7306 H   0  0  0  0  0  0  0  0  0  0  0  0
  145.5594  154.4947  135.6827 H   0  0  0  0  0  0  0  0  0  0  0  0
  144.1055  154.7301  134.6544 H   0  0  0  0  0  0  0  0  0  0  0  0
  144.9593  153.1497  134.6544 H   0  0  0  0  0  0  0  0  0  0  0  0
  144.1190  155.1643  132.5452 H   0  0  0  0  0  0  0  0  0  0  0  0
  145.5890  155.7401  131.6883 H   0  0  0  0  0  0  0  0  0  0  0  0
  145.1763  153.9919  131.6883 H   0  0  0  0  0  0  0  0  0  0  0  0
  144.5632  156.8893  134.0171 H   0  0  0  0  0  0  0  0  0  0  0  0
  1  2  1  0
  2  3  1  0
  3  4  1  0
  4  5  2  0
  4  6  1  0
  6  7  1  0
  6  8  1  0
  8  9  1  0
  9 10  2  0
 10 11  1  0
 11 12  2  0
 12 13  1  0
 13 14  2  0
 14 15  1  0
 15 16  1  0
 15 17  2  0
 14 18  1  0
 18 19  1  0
 19 20  2  0
 19 21  1  0
 21 22  1  0
 22 23  1  0
 22 24  1  0
 22 25  1  0
 18 26  1  0
 26 27  2  0
 27  9  1  0
 26 12  1  0
  1 28  1  0
  1 29  1  0
  1 30  1  0
  2 31  1  0
  2 32  1  0
  6 33  1  1
  7 34  1  0
  7 35  1  0
  8 36  1  0
  8 37  1  0
 10 38  1  0
 11 39  1  0
 13 40  1  0
 16 41  1  0
 16 42  1  0
 23 43  1  0
 23 44  1  0
 23 45  1  0
 24 46  1  0
 24 47  1  0
 24 48  1  0
 25 49  1  0
 25 50  1  0
 25 51  1  0
 27 52  1  0
M  END
>  <UniqueID>  (7) 
7

>  <SMILES>  (7) 
CCOC(=O)[C@@H](N)Cc1ccc2cc(C(N)=O)n(C(=O)OC(C)(C)C)c2c1

>  <Energy>  (7) 
74.34513113111933

>  <Genealogy>  (7) 
CCOC(=O)[C@@H](N)Cc1ccc2cc(C(N)=O)n(C(=O)OC(C)(C)C)c2c1 (3D coordinates assigned)
CCOC(=O)[C@@H](N)Cc1ccc2cc(C(N)=O)n(C(=O)OC(C)(C)C)c2c1 (optimized conformer: 74.34513113111933 kcal/mol)

>  <smiles>  (7) 
CCOC(=O)[C@@H](N)Cc1ccc2cc(C(N)=O)n(C(=O)OC(C)(C)C)c2c1

>  <score_type>  (7) 
oracle

>  <origin>  (7) 
adg

>  <m_score__min__energy>  (7) 
-7.96

>  <m_primary>  (7) 
energy

$$$$
7:0
     RDKit          3D

 34 35  0  0  0  0  0  0  0  0999 V2000
  140.6550  158.6380  135.0340 C   0  0  0  0  0  0  0  0  0  0  0  0
  141.7210  158.9640  134.6910 N   0  0  0  0  0  0  0  0  0  0  0  0
  142.9750  159.3220  134.2800 C   0  0  0  0  0  0  0  0  0  0  0  0
  143.2400  160.6560  134.1050 C   0  0  0  0  0  0  0  0  0  0  0  0
  144.4960  161.0380  133.6950 C   0  0  0  0  0  0  0  0  0  0  0  0
  145.4380  160.0560  133.4780 C   0  0  0  0  0  0  0  0  0  0  0  0
  146.7460  160.2040  133.0830 C   0  0  0  0  0  0  0  0  0  0  0  0
  147.2870  158.8950  133.0190 C   0  0  0  0  0  0  0  0  0  0  0  0
  148.7000  158.7340  132.6890 C   0  0  0  0  0  0  0  0  0  0  0  0
  149.2260  157.4170  132.3830 N   0  0  0  0  0  0  0  0  0  0  0  0
  149.5600  159.6360  132.6380 O   0  0  0  0  0  0  0  0  0  0  0  0
  146.3710  158.0010  133.3440 N   0  0  0  0  0  0  0  0  0  0  0  0
  146.3250  156.6010  133.3060 C   0  0  0  0  0  0  0  0  0  0  0  0
  145.4870  155.9600  134.0570 O   0  0  0  0  0  0  0  0  0  0  0  0
  147.0970  155.7250  132.5080 N   0  0  0  0  0  0  0  0  0  0  0  0
  146.8610  154.2780  132.6710 C   0  0  0  0  0  0  0  0  0  0  0  0
  148.0480  153.7410  133.4750 C   0  0  0  0  0  0  0  0  0  0  0  0
  149.2590  153.8480  132.6580 C   0  0  0  0  0  0  0  0  0  0  0  0
  149.6290  154.9770  132.2320 O   0  0  0  0  0  0  0  0  0  0  0  0
  149.9840  152.6730  132.3550 O   0  0  0  0  0  0  0  0  0  0  0  0
  145.2330  158.7180  133.6340 C   0  0  0  0  0  0  0  0  0  0  0  0
  143.9540  158.3390  134.0490 C   0  0  0  0  0  0  0  0  0  0  0  0
  142.4599  161.4092  134.2897 H   0  0  0  0  0  0  0  0  0  0  0  0
  144.7421  162.0995  133.5443 H   0  0  0  0  0  0  0  0  0  0  0  0
  147.2675  161.1469  132.8614 H   0  0  0  0  0  0  0  0  0  0  0  0
  149.9880  156.9920  132.9830 H   0  0  0  0  0  0  0  0  0  0  0  0
  148.8340  156.8960  131.5420 H   0  0  0  0  0  0  0  0  0  0  0  0
  147.7600  156.0490  131.8150 H   0  0  0  0  0  0  0  0  0  0  0  0
  145.9212  154.1036  133.2154 H   0  0  0  0  0  0  0  0  0  0  0  0
  146.7743  153.7732  131.6975 H   0  0  0  0  0  0  0  0  0  0  0  0
  148.1692  154.3321  134.3947 H   0  0  0  0  0  0  0  0  0  0  0  0
  147.8712  152.6894  133.7450 H   0  0  0  0  0  0  0  0  0  0  0  0
  150.8940  152.7460  131.9100 H   0  0  0  0  0  0  0  0  0  0  0  0
  143.7135  157.2755  134.1946 H   0  0  0  0  0  0  0  0  0  0  0  0
  1  2  3  0
  2  3  1  0
  3  4  2  0
  4  5  1  0
  5  6  2  0
  6  7  1  0
  7  8  2  0
  8  9  1  0
  9 10  1  0
  9 11  2  0
  8 12  1  0
 12 13  1  0
 13 14  2  0
 13 15  1  0
 15 16  1  0
 16 17  1  0
 17 18  1  0
 18 19  2  0
 18 20  1  0
 12 21  1  0
 21 22  2  0
 22  3  1  0
 21  6  1  0
  4 23  1  0
  5 24  1  0
  7 25  1  0
 10 26  1  0
 10 27  1  0
 15 28  1  0
 16 29  1  0
 16 30  1  0
 17 31  1  0
 17 32  1  0
 20 33  1  0
 22 34  1  0
M  CHG  2   1  -1   2   1
M  END
>  <smiles>  (8) 
[C-]#[N+]c1ccc2cc(C(N)=O)n(C(=O)NCCC(=O)O)c2c1

>  <score_type>  (8) 
oracle

>  <origin>  (8) 
adg

>  <m_score__min__energy>  (8) 
-7.0800000000000001

>  <m_primary>  (8) 
energy

$$$$
8:0
     RDKit          3D

 35 36  0  0  0  0  0  0  0  0999 V2000
  149.9000  153.7900  138.6400 C   0  0  0  0  0  0  0  0  0  0  0  0
  148.6660  154.0890  137.9970 O   0  0  0  0  0  0  0  0  0  0  0  0
  148.1210  153.2750  137.0010 C   0  0  0  0  0  0  0  0  0  0  0  0
  148.8550  152.4810  136.3500 O   0  0  0  0  0  0  0  0  0  0  0  0
  146.7510  153.3560  136.7350 O   0  0  0  0  0  0  0  0  0  0  0  0
  146.1640  154.4380  136.0210 C   0  0  0  0  0  0  0  0  0  0  0  0
  145.5080  153.9450  134.8580 O   0  0  0  0  0  0  0  0  0  0  0  0
  145.5040  154.6350  133.6420 C   0  0  0  0  0  0  0  0  0  0  0  0
  144.6240  154.3880  132.7730 O   0  0  0  0  0  0  0  0  0  0  0  0
  146.4950  155.6440  133.3930 N   0  0  0  0  0  0  0  0  0  0  0  0
  147.8430  155.4770  133.2830 C   0  0  0  0  0  0  0  0  0  0  0  0
  148.5560  154.1850  133.2170 C   0  0  0  0  0  0  0  0  0  0  0  0
  147.9970  153.0080  133.7970 N   0  0  0  0  0  0  0  0  0  0  0  0
  149.6500  154.1060  132.5970 O   0  0  0  0  0  0  0  0  0  0  0  0
  148.4810  156.7090  133.1530 C   0  0  0  0  0  0  0  0  0  0  0  0
  147.4730  157.6460  133.1810 C   0  0  0  0  0  0  0  0  0  0  0  0
  147.5400  159.0340  133.0950 C   0  0  0  0  0  0  0  0  0  0  0  0
  146.3370  159.7560  133.1770 C   0  0  0  0  0  0  0  0  0  0  0  0
  145.1030  159.0850  133.3610 C   0  0  0  0  0  0  0  0  0  0  0  0
  143.8240  159.8660  133.4240 C   0  0  0  0  0  0  0  0  0  0  0  0
  142.8800  159.3590  134.8460 Cl  0  0  0  0  0  0  0  0  0  0  0  0
  145.0740  157.6750  133.4310 C   0  0  0  0  0  0  0  0  0  0  0  0
  146.2840  156.9790  133.3270 C   0  0  0  0  0  0  0  0  0  0  0  0
  149.7625  153.8233  139.7309 H   0  0  0  0  0  0  0  0  0  0  0  0
  150.2341  152.7849  138.3430 H   0  0  0  0  0  0  0  0  0  0  0  0
  150.6571  154.5307  138.3430 H   0  0  0  0  0  0  0  0  0  0  0  0
  145.4323  154.9473  136.6654 H   0  0  0  0  0  0  0  0  0  0  0  0
  146.9502  155.1472  135.7230 H   0  0  0  0  0  0  0  0  0  0  0  0
  147.5010  153.0450  134.7140 H   0  0  0  0  0  0  0  0  0  0  0  0
  149.5605  156.8935  133.0499 H   0  0  0  0  0  0  0  0  0  0  0  0
  148.5035  159.5490  132.9670 H   0  0  0  0  0  0  0  0  0  0  0  0
  146.3538  160.8530  133.0975 H   0  0  0  0  0  0  0  0  0  0  0  0
  144.0542  160.9388  133.5016 H   0  0  0  0  0  0  0  0  0  0  0  0
  143.2378  159.6788  132.5122 H   0  0  0  0  0  0  0  0  0  0  0  0
  144.1239  157.1368  133.5640 H   0  0  0  0  0  0  0  0  0  0  0  0
  1  2  1  0
  2  3  1  0
  3  4  2  0
  3  5  1  0
  5  6  1  0
  6  7  1  0
  7  8  1  0
  8  9  2  0
  8 10  1  0
 10 11  1  0
 11 12  1  0
 12 13  1  0
 12 14  2  0
 11 15  2  0
 15 16  1  0
 16 17  2  0
 17 18  1  0
 18 19  2  0
 19 20  1  0
 20 21  1  0
 19 22  1  0
 22 23  2  0
 23 10  1  0
 23 16  1  0
  1 24  1  0
  1 25  1  0
  1 26  1  0
  6 27  1  0
  6 28  1  0
 13 29  1  0
 15 30  1  0
 17 31  1  0
 18 32  1  0
 20 33  1  0
 20 34  1  0
 22 35  1  0
M  CHG  1  13  -1
M  END
>  <UniqueID>  (9) 
8

>  <SMILES>  (9) 
COC(=O)OCOC(=O)n1c(C([NH-])=O)cc2ccc(CCl)cc21

>  <Energy>  (9) 
67.72222922862954

>  <Genealogy>  (9) 
COC(=O)OCOC(=O)n1c(C([NH-])=O)cc2ccc(CCl)cc21 (protonated)
COC(=O)OCOC(=O)n1c(C([NH-])=O)cc2ccc(CCl)cc21 (3D coordinates assigned)
COC(=O)OCOC(=O)n1c(C([NH-])=O)cc2ccc(CCl)cc21 (optimized conformer: 67.72222922862954 kcal/mol)

>  <smiles>  (9) 
COC(=O)OCOC(=O)n1c(C(N)=O)cc2ccc(CCl)cc21

>  <score_type>  (9) 
oracle

>  <origin>  (9) 
adg

>  <m_score__min__energy>  (9) 
-5.3300000000000001

>  <m_primary>  (9) 
energy

$$$$
9:0
     RDKit          3D

 41 42  0  0  0  0  0  0  0  0999 V2000
  142.2830  154.1020  139.4520 C   0  0  0  0  0  0  0  0  0  0  0  0
  141.9890  155.0650  138.7880 C   0  0  0  0  0  0  0  0  0  0  0  0
  141.6420  156.2130  137.9940 C   0  0  0  0  0  0  0  0  0  0  0  0
  141.6970  157.5080  138.5630 C   0  0  0  0  0  0  0  0  0  0  0  0
  141.3560  158.6380  137.8000 C   0  0  0  0  0  0  0  0  0  0  0  0
  140.9700  158.4380  136.4770 C   0  0  0  0  0  0  0  0  0  0  0  0
  140.5760  159.3440  135.5160 C   0  0  0  0  0  0  0  0  0  0  0  0
  140.2980  158.5820  134.3810 C   0  0  0  0  0  0  0  0  0  0  0  0
  139.8610  159.1460  133.0880 C   0  0  0  0  0  0  0  0  0  0  0  0
  140.8050  159.7890  132.2360 N   0  0  0  0  0  0  0  0  0  0  0  0
  138.6590  159.0610  132.7230 O   0  0  0  0  0  0  0  0  0  0  0  0
  140.5160  157.2620  134.6330 N   0  0  0  0  0  0  0  0  0  0  0  0
  140.3200  156.1570  133.7400 C   0  0  0  0  0  0  0  0  0  0  0  0
  139.2340  156.0680  133.1050 O   0  0  0  0  0  0  0  0  0  0  0  0
  141.3540  155.1690  133.5550 N   0  0  0  0  0  0  0  0  0  0  0  0
  140.9880  153.7660  133.3460 C   0  0  0  0  0  0  0  0  0  0  0  0
  142.7650  155.5420  133.7090 C   0  0  0  0  0  0  0  0  0  0  0  0
  142.9650  156.9620  133.2880 C   0  0  0  0  0  0  0  0  0  0  0  0
  142.4750  157.3720  132.2010 O   0  0  0  0  0  0  0  0  0  0  0  0
  143.6890  157.8550  134.1400 N   0  0  0  0  0  0  0  0  0  0  0  0
  144.9040  158.5530  133.7360 C   0  0  0  0  0  0  0  0  0  0  0  0
  144.5990  160.0130  133.4150 C   0  0  0  0  0  0  0  0  0  0  0  0
  143.2140  160.1920  133.3200 O   0  0  0  0  0  0  0  0  0  0  0  0
  140.9210  157.1870  135.9160 C   0  0  0  0  0  0  0  0  0  0  0  0
  141.2450  156.0450  136.6530 C   0  0  0  0  0  0  0  0  0  0  0  0
  142.5511  153.2237  140.0576 H   0  0  0  0  0  0  0  0  0  0  0  0
  142.0091  157.6309  139.6106 H   0  0  0  0  0  0  0  0  0  0  0  0
  141.3928  159.6481  138.2340 H   0  0  0  0  0  0  0  0  0  0  0  0
  140.4974  160.4361  135.6216 H   0  0  0  0  0  0  0  0  0  0  0  0
  141.7300  159.3480  132.0310 H   0  0  0  0  0  0  0  0  0  0  0  0
  140.8591  153.2717  134.3202 H   0  0  0  0  0  0  0  0  0  0  0  0
  140.0460  153.7131  132.7804 H   0  0  0  0  0  0  0  0  0  0  0  0
  141.7841  153.2597  132.7804 H   0  0  0  0  0  0  0  0  0  0  0  0
  143.0591  155.4293  134.7630 H   0  0  0  0  0  0  0  0  0  0  0  0
  143.3836  154.8868  133.0781 H   0  0  0  0  0  0  0  0  0  0  0  0
  145.6370  158.5078  134.5550 H   0  0  0  0  0  0  0  0  0  0  0  0
  145.3108  158.0681  132.8363 H   0  0  0  0  0  0  0  0  0  0  0  0
  144.9974  160.6549  134.2146 H   0  0  0  0  0  0  0  0  0  0  0  0
  145.0694  160.2833  132.4581 H   0  0  0  0  0  0  0  0  0  0  0  0
  142.8680  159.4030  132.8260 H   0  0  0  0  0  0  0  0  0  0  0  0
  141.1916  155.0443  136.1994 H   0  0  0  0  0  0  0  0  0  0  0  0
  1  2  3  0
  2  3  1  0
  3  4  2  0
  4  5  1  0
  5  6  2  0
  6  7  1  0
  7  8  2  0
  8  9  1  0
  9 10  1  0
  9 11  2  0
  8 12  1  0
 12 13  1  0
 13 14  2  0
 13 15  1  0
 15 16  1  0
 15 17  1  0
 17 18  1  0
 18 19  2  0
 18 20  1  0
 20 21  1  0
 21 22  1  0
 22 23  1  0
 12 24  1  0
 24 25  2  0
 25  3  1  0
 24  6  1  0
  1 26  1  0
  4 27  1  0
  5 28  1  0
  7 29  1  0
 10 30  1  0
 16 31  1  0
 16 32  1  0
 16 33  1  0
 17 34  1  0
 17 35  1  0
 21 36  1  0
 21 37  1  0
 22 38  1  0
 22 39  1  0
 23 40  1  0
 25 41  1  0
M  CHG  2  10  -1  20  -1
M  END
>  <UniqueID>  (10) 
9

>  <SMILES>  (10) 
C#Cc1ccc2cc(C([NH-])=O)n(C(=O)N(C)CC(=O)[N-]CCO)c2c1

>  <Energy>  (10) 
69.59883066374132

>  <Genealogy>  (10) 
C#Cc1ccc2cc(C([NH-])=O)n(C(=O)N(C)CC(=O)[N-]CCO)c2c1 (protonated)
C#Cc1ccc2cc(C([NH-])=O)n(C(=O)N(C)CC(=O)[N-]CCO)c2c1 (3D coordinates assigned)
C#Cc1ccc2cc(C([NH-])=O)n(C(=O)N(C)CC(=O)[N-]CCO)c2c1 (optimized conformer: 69.59883066374132 kcal/mol)

>  <smiles>  (10) 
C#Cc1ccc2cc(C(N)=O)n(C(=O)N(C)CC(=O)NCCO)c2c1

>  <score_type>  (10) 
oracle

>  <origin>  (10) 
adg

>  <m_score__min__energy>  (10) 
-6.2800000000000002

>  <m_primary>  (10) 
energy

$$$$
10:0
     RDKit          3D

 45 46  0  0  0  0  0  0  0  0999 V2000
  137.6550  160.1340  130.8100 C   0  0  0  0  0  0  0  0  0  0  0  0
  138.9740  159.4220  130.5590 C   0  0  0  0  0  0  0  0  0  0  0  0
  139.7660  159.4460  131.7430 O   0  0  0  0  0  0  0  0  0  0  0  0
  139.5310  158.5890  132.8210 C   0  0  0  0  0  0  0  0  0  0  0  0
  138.3560  158.2400  133.1190 O   0  0  0  0  0  0  0  0  0  0  0  0
  140.6890  158.0410  133.5960 C   0  0  0  0  0  0  0  0  0  0  0  0
  141.9560  158.4060  132.9590 N   0  0  0  0  0  0  0  0  0  0  0  0
  143.2380  157.8860  133.3570 C   0  0  0  0  0  0  0  0  0  0  0  0
  144.3830  158.7130  133.2340 C   0  0  0  0  0  0  0  0  0  0  0  0
  145.6570  158.2410  133.5960 C   0  0  0  0  0  0  0  0  0  0  0  0
  145.7570  156.9400  134.0770 C   0  0  0  0  0  0  0  0  0  0  0  0
  146.8550  156.2410  134.5260 C   0  0  0  0  0  0  0  0  0  0  0  0
  146.3640  154.9980  134.9230 C   0  0  0  0  0  0  0  0  0  0  0  0
  147.2100  153.9080  135.4550 C   0  0  0  0  0  0  0  0  0  0  0  0
  146.9500  153.3340  136.7320 N   0  0  0  0  0  0  0  0  0  0  0  0
  148.1620  153.4620  134.7600 O   0  0  0  0  0  0  0  0  0  0  0  0
  145.0190  154.9320  134.7180 N   0  0  0  0  0  0  0  0  0  0  0  0
  144.1250  153.8780  135.1060 C   0  0  0  0  0  0  0  0  0  0  0  0
  143.9950  153.6060  136.3300 O   0  0  0  0  0  0  0  0  0  0  0  0
  143.3830  153.1360  134.1160 N   0  0  0  0  0  0  0  0  0  0  0  0
  144.1030  152.3990  133.0720 C   0  0  0  0  0  0  0  0  0  0  0  0
  141.9220  153.0330  134.2240 C   0  0  0  0  0  0  0  0  0  0  0  0
  141.5170  151.6100  134.4560 C   0  0  0  0  0  0  0  0  0  0  0  0
  141.0180  151.2640  135.5580 O   0  0  0  0  0  0  0  0  0  0  0  0
  141.6830  150.6670  133.4500 O   0  0  0  0  0  0  0  0  0  0  0  0
  144.6620  156.1270  134.2050 C   0  0  0  0  0  0  0  0  0  0  0  0
  143.3800  156.5730  133.8670 C   0  0  0  0  0  0  0  0  0  0  0  0
  137.4875  160.2244  131.8934 H   0  0  0  0  0  0  0  0  0  0  0  0
  137.6880  161.1368  130.3591 H   0  0  0  0  0  0  0  0  0  0  0  0
  136.8348  159.5561  130.3591 H   0  0  0  0  0  0  0  0  0  0  0  0
  138.7773  158.3785  130.2719 H   0  0  0  0  0  0  0  0  0  0  0  0
  139.5150  159.9326  129.7487 H   0  0  0  0  0  0  0  0  0  0  0  0
  140.6667  158.4504  134.6167 H   0  0  0  0  0  0  0  0  0  0  0  0
  140.6095  156.9442  133.6234 H   0  0  0  0  0  0  0  0  0  0  0  0
  141.9060  159.0200  132.1150 H   0  0  0  0  0  0  0  0  0  0  0  0
  144.2731  159.7380  132.8501 H   0  0  0  0  0  0  0  0  0  0  0  0
  146.5468  158.8808  133.5017 H   0  0  0  0  0  0  0  0  0  0  0  0
  147.8978  156.5892  134.5635 H   0  0  0  0  0  0  0  0  0  0  0  0
  145.9720  153.1580  137.0530 H   0  0  0  0  0  0  0  0  0  0  0  0
  144.7988  151.6868  133.5395 H   0  0  0  0  0  0  0  0  0  0  0  0
  143.3826  151.8511  132.4468 H   0  0  0  0  0  0  0  0  0  0  0  0
  144.6675  153.1064  132.4468 H   0  0  0  0  0  0  0  0  0  0  0  0
  141.5759  153.6506  135.0659 H   0  0  0  0  0  0  0  0  0  0  0  0
  141.4681  153.3859  133.2862 H   0  0  0  0  0  0  0  0  0  0  0  0
  142.5041  155.9199  133.9943 H   0  0  0  0  0  0  0  0  0  0  0  0
  1  2  1  0
  2  3  1  0
  3  4  1  0
  4  5  2  0
  4  6  1  0
  6  7  1  0
  7  8  1  0
  8  9  2  0
  9 10  1  0
 10 11  2  0
 11 12  1  0
 12 13  2  0
 13 14  1  0
 14 15  1  0
 14 16  2  0
 13 17  1  0
 17 18  1  0
 18 19  2  0
 18 20  1  0
 20 21  1  0
 20 22  1  0
 22 23  1  0
 23 24  2  0
 23 25  1  0
 17 26  1  0
 26 27  2  0
 27  8  1  0
 26 11  1  0
  1 28  1  0
  1 29  1  0
  1 30  1  0
  2 31  1  0
  2 32  1  0
  6 33  1  0
  6 34  1  0
  7 35  1  0
  9 36  1  0
 10 37  1  0
 12 38  1  0
 15 39  1  0
 21 40  1  0
 21 41  1  0
 21 42  1  0
 22 43  1  0
 22 44  1  0
 27 45  1  0
M  CHG  2  15  -1  25  -1
M  END
>  <UniqueID>  (11) 
10

>  <SMILES>  (11) 
CCOC(=O)CNc1ccc2cc(C([NH-])=O)n(C(=O)N(C)CC(=O)[O-])c2c1

>  <Energy>  (11) 
72.40453444347042

>  <Genealogy>  (11) 
CCOC(=O)CNc1ccc2cc(C([NH-])=O)n(C(=O)N(C)CC(=O)[O-])c2c1 (protonated)
CCOC(=O)CNc1ccc2cc(C([NH-])=O)n(C(=O)N(C)CC(=O)[O-])c2c1 (3D coordinates assigned)
CCOC(=O)CNc1ccc2cc(C([NH-])=O)n(C(=O)N(C)CC(=O)[O-])c2c1 (optimized conformer: 72.40453444347042 kcal/mol)

>  <smiles>  (11) 
CCOC(=O)CNc1ccc2cc(C(N)=O)n(C(=O)N(C)CC(=O)O)c2c1

>  <score_type>  (11) 
oracle

>  <origin>  (11) 
adg

>  <m_score__min__energy>  (11) 
-7.0700000000000003

>  <m_primary>  (11) 
energy

$$$$
11:0
     RDKit          3D

 41 42  0  0  0  0  0  0  0  0999 V2000
  139.2900  157.4230  133.3270 C   0  0  0  0  0  0  0  0  0  0  0  0
  140.1700  158.4280  133.2760 C   0  0  0  0  0  0  0  0  0  0  0  0
  140.2260  159.3030  132.0560 C   0  0  0  0  0  0  0  0  0  0  0  0
  141.1140  158.6240  134.3510 N   0  0  0  0  0  0  0  0  0  0  0  0
  140.6610  158.4690  135.7380 C   0  0  0  0  0  0  0  0  0  0  0  0
  142.4430  159.1210  134.0750 C   0  0  0  0  0  0  0  0  0  0  0  0
  142.6810  160.5190  134.0200 C   0  0  0  0  0  0  0  0  0  0  0  0
  143.9680  161.0220  133.7670 C   0  0  0  0  0  0  0  0  0  0  0  0
  144.9960  160.1070  133.5620 C   0  0  0  0  0  0  0  0  0  0  0  0
  146.3360  160.3200  133.3310 C   0  0  0  0  0  0  0  0  0  0  0  0
  146.8980  159.0490  133.2230 C   0  0  0  0  0  0  0  0  0  0  0  0
  148.3200  158.8120  132.8950 C   0  0  0  0  0  0  0  0  0  0  0  0
  148.6980  158.2350  131.6480 N   0  0  0  0  0  0  0  0  0  0  0  0
  149.2150  159.1670  133.7070 O   0  0  0  0  0  0  0  0  0  0  0  0
  145.9430  158.0900  133.3860 N   0  0  0  0  0  0  0  0  0  0  0  0
  146.1290  156.6680  133.4430 C   0  0  0  0  0  0  0  0  0  0  0  0
  145.5290  155.9920  134.3230 O   0  0  0  0  0  0  0  0  0  0  0  0
  146.9920  156.0440  132.5340 O   0  0  0  0  0  0  0  0  0  0  0  0
  147.3650  154.6690  132.6150 C   0  0  0  0  0  0  0  0  0  0  0  0
  148.8830  154.5220  132.7360 C   0  0  0  0  0  0  0  0  0  0  0  0
  149.5330  155.6770  132.2810 O   0  0  0  0  0  0  0  0  0  0  0  0
  144.7850  158.7540  133.5900 C   0  0  0  0  0  0  0  0  0  0  0  0
  143.5170  158.2240  133.8600 C   0  0  0  0  0  0  0  0  0  0  0  0
  139.2428  156.7779  134.2167 H   0  0  0  0  0  0  0  0  0  0  0  0
  138.6131  157.2412  132.4792 H   0  0  0  0  0  0  0  0  0  0  0  0
  140.2935  160.3570  132.3635 H   0  0  0  0  0  0  0  0  0  0  0  0
  141.1091  159.0390  131.4556 H   0  0  0  0  0  0  0  0  0  0  0  0
  139.3165  159.1537  131.4556 H   0  0  0  0  0  0  0  0  0  0  0  0
  141.4753  158.7476  136.4230 H   0  0  0  0  0  0  0  0  0  0  0  0
  139.7933  159.1214  135.9154 H   0  0  0  0  0  0  0  0  0  0  0  0
  140.3748  157.4218  135.9154 H   0  0  0  0  0  0  0  0  0  0  0  0
  141.8465  161.2181  134.1776 H   0  0  0  0  0  0  0  0  0  0  0  0
  144.1571  162.1051  133.7321 H   0  0  0  0  0  0  0  0  0  0  0  0
  146.8533  161.2873  133.2490 H   0  0  0  0  0  0  0  0  0  0  0  0
  148.3660  157.2840  131.3730 H   0  0  0  0  0  0  0  0  0  0  0  0
  146.8879  154.2177  133.4974 H   0  0  0  0  0  0  0  0  0  0  0  0
  147.0344  154.1602  131.6975 H   0  0  0  0  0  0  0  0  0  0  0  0
  149.1459  154.3520  133.7905 H   0  0  0  0  0  0  0  0  0  0  0  0
  149.2049  153.6702  132.1188 H   0  0  0  0  0  0  0  0  0  0  0  0
  148.8420  156.2490  131.8570 H   0  0  0  0  0  0  0  0  0  0  0  0
  143.3593  157.1363  133.9040 H   0  0  0  0  0  0  0  0  0  0  0  0
  1  2  2  0
  2  3  1  0
  2  4  1  0
  4  5  1  0
  4  6  1  0
  6  7  2  0
  7  8  1  0
  8  9  2  0
  9 10  1  0
 10 11  2  0
 11 12  1  0
 12 13  1  0
 12 14  2  0
 11 15  1  0
 15 16  1  0
 16 17  2  0
 16 18  1  0
 18 19  1  0
 19 20  1  0
 20 21  1  0
 15 22  1  0
 22 23  2  0
 23  6  1  0
 22  9  1  0
  1 24  1  0
  1 25  1  0
  3 26  1  0
  3 27  1  0
  3 28  1  0
  5 29  1  0
  5 30  1  0
  5 31  1  0
  7 32  1  0
  8 33  1  0
 10 34  1  0
 13 35  1  0
 19 36  1  0
 19 37  1  0
 20 38  1  0
 20 39  1  0
 21 40  1  0
 23 41  1  0
M  CHG  1  13  -1
M  END
>  <UniqueID>  (12) 
11

>  <SMILES>  (12) 
C=C(C)N(C)c1ccc2cc(C([NH-])=O)n(C(=O)OCCO)c2c1

>  <Energy>  (12) 
82.92491133241543

>  <Genealogy>  (12) 
C=C(C)N(C)c1ccc2cc(C([NH-])=O)n(C(=O)OCCO)c2c1 (protonated)
C=C(C)N(C)c1ccc2cc(C([NH-])=O)n(C(=O)OCCO)c2c1 (3D coordinates assigned)
C=C(C)N(C)c1ccc2cc(C([NH-])=O)n(C(=O)OCCO)c2c1 (optimized conformer: 82.92491133241543 kcal/mol)

>  <smiles>  (12) 
C=C(C)N(C)c1ccc2cc(C(N)=O)n(C(=O)OCCO)c2c1

>  <score_type>  (12) 
oracle

>  <origin>  (12) 
adg

>  <m_score__min__energy>  (12) 
-5.9699999999999998

>  <m_primary>  (12) 
energy

$$$$
12:0
     RDKit          3D

 37 38  0  0  0  0  0  0  0  0999 V2000
  146.9320  156.6790  132.2090 N   0  0  0  0  0  0  0  0  0  0  0  0
  148.2240  157.1900  132.6540 C   0  0  0  0  0  0  0  0  0  0  0  0
  148.0390  158.4960  133.3550 C   0  0  0  0  0  0  0  0  0  0  0  0
  149.0430  159.2060  133.6390 O   0  0  0  0  0  0  0  0  0  0  0  0
  146.7510  158.9060  133.7110 O   0  0  0  0  0  0  0  0  0  0  0  0
  145.9220  159.6820  132.8540 C   0  0  0  0  0  0  0  0  0  0  0  0
  144.6980  158.9930  132.6240 O   0  0  0  0  0  0  0  0  0  0  0  0
  143.5300  159.2530  133.3450 C   0  0  0  0  0  0  0  0  0  0  0  0
  143.3820  160.3610  133.9340 O   0  0  0  0  0  0  0  0  0  0  0  0
  142.4950  158.2570  133.4130 N   0  0  0  0  0  0  0  0  0  0  0  0
  142.5730  157.0160  133.9750 C   0  0  0  0  0  0  0  0  0  0  0  0
  143.7980  156.3760  134.4940 C   0  0  0  0  0  0  0  0  0  0  0  0
  145.0930  156.7850  134.0510 N   0  0  0  0  0  0  0  0  0  0  0  0
  143.6980  155.4110  135.2990 O   0  0  0  0  0  0  0  0  0  0  0  0
  141.3360  156.3790  133.9380 C   0  0  0  0  0  0  0  0  0  0  0  0
  140.4890  157.2670  133.3160 C   0  0  0  0  0  0  0  0  0  0  0  0
  139.1360  157.1440  133.0060 C   0  0  0  0  0  0  0  0  0  0  0  0
  138.5040  158.2270  132.3700 C   0  0  0  0  0  0  0  0  0  0  0  0
  139.2250  159.4120  132.0830 C   0  0  0  0  0  0  0  0  0  0  0  0
  138.5470  160.5520  131.3810 C   0  0  0  0  0  0  0  0  0  0  0  0
  137.2360  160.2090  131.1070 F   0  0  0  0  0  0  0  0  0  0  0  0
  140.5970  159.4990  132.4040 C   0  0  0  0  0  0  0  0  0  0  0  0
  141.2100  158.3950  133.0110 C   0  0  0  0  0  0  0  0  0  0  0  0
  147.0200  156.3910  131.2070 H   0  0  0  0  0  0  0  0  0  0  0  0
  146.2520  157.4740  132.2310 H   0  0  0  0  0  0  0  0  0  0  0  0
  148.6842  156.4674  133.3440 H   0  0  0  0  0  0  0  0  0  0  0  0
  148.8763  157.3366  131.7805 H   0  0  0  0  0  0  0  0  0  0  0  0
  145.7127  160.6527  133.3273 H   0  0  0  0  0  0  0  0  0  0  0  0
  146.4366  159.8439  131.8954 H   0  0  0  0  0  0  0  0  0  0  0  0
  145.2040  157.4560  133.2570 H   0  0  0  0  0  0  0  0  0  0  0  0
  145.9490  156.3440  134.4540 H   0  0  0  0  0  0  0  0  0  0  0  0
  141.0884  155.3790  134.3237 H   0  0  0  0  0  0  0  0  0  0  0  0
  138.5794  156.2275  133.2514 H   0  0  0  0  0  0  0  0  0  0  0  0
  137.4419  158.1535  132.0933 H   0  0  0  0  0  0  0  0  0  0  0  0
  138.5660  161.4432  132.0256 H   0  0  0  0  0  0  0  0  0  0  0  0
  139.0739  160.7693  130.4402 H   0  0  0  0  0  0  0  0  0  0  0  0
  141.1707  160.4112  132.1830 H   0  0  0  0  0  0  0  0  0  0  0  0
  1  2  1  0
  2  3  1  0
  3  4  2  0
  3  5  1  0
  5  6  1  0
  6  7  1  0
  7  8  1  0
  8  9  2  0
  8 10  1  0
 10 11  1  0
 11 12  1  0
 12 13  1  0
 12 14  2  0
 11 15  2  0
 15 16  1  0
 16 17  2  0
 17 18  1  0
 18 19  2  0
 19 20  1  0
 20 21  1  0
 19 22  1  0
 22 23  2  0
 23 10  1  0
 23 16  1  0
  1 24  1  0
  1 25  1  0
  2 26  1  0
  2 27  1  0
  6 28  1  0
  6 29  1  0
 13 30  1  0
 13 31  1  0
 15 32  1  0
 17 33  1  0
 18 34  1  0
 20 35  1  0
 20 36  1  0
 22 37  1  0
M  END
>  <UniqueID>  (13) 
12

>  <SMILES>  (13) 
NCC(=O)OCOC(=O)n1c(C(N)=O)cc2ccc(CF)cc21

>  <Energy>  (13) 
69.39179278882024

>  <Genealogy>  (13) 
NCC(=O)OCOC(=O)n1c(C(N)=O)cc2ccc(CF)cc21 (3D coordinates assigned)
NCC(=O)OCOC(=O)n1c(C(N)=O)cc2ccc(CF)cc21 (optimized conformer: 69.39179278882024 kcal/mol)

>  <smiles>  (13) 
NCC(=O)OCOC(=O)n1c(C(N)=O)cc2ccc(CF)cc21

>  <score_type>  (13) 
oracle

>  <origin>  (13) 
adg

>  <m_score__min__energy>  (13) 
-5.75

>  <m_primary>  (13) 
energy

$$$$
13:0
     RDKit          3D

 34 35  0  0  0  0  0  0  0  0999 V2000
  143.3840  159.9410  133.7600 C   0  0  0  0  0  0  0  0  0  0  0  0
  144.7700  160.3980  133.7010 N   0  0  0  0  0  0  0  0  0  0  0  0
  145.0100  161.7100  133.9340 F   0  0  0  0  0  0  0  0  0  0  0  0
  145.8720  159.5150  133.4070 C   0  0  0  0  0  0  0  0  0  0  0  0
  147.1280  160.0180  132.9690 C   0  0  0  0  0  0  0  0  0  0  0  0
  148.1970  159.1470  132.6960 C   0  0  0  0  0  0  0  0  0  0  0  0
  147.9860  157.7820  132.8590 C   0  0  0  0  0  0  0  0  0  0  0  0
  148.8520  156.7270  132.6890 C   0  0  0  0  0  0  0  0  0  0  0  0
  148.1120  155.5880  132.9990 C   0  0  0  0  0  0  0  0  0  0  0  0
  148.6390  154.2150  132.8600 C   0  0  0  0  0  0  0  0  0  0  0  0
  147.9260  153.0970  133.3840 N   0  0  0  0  0  0  0  0  0  0  0  0
  149.7110  154.0200  132.2270 O   0  0  0  0  0  0  0  0  0  0  0  0
  146.8410  155.9280  133.3560 N   0  0  0  0  0  0  0  0  0  0  0  0
  145.7930  155.0640  133.8220 C   0  0  0  0  0  0  0  0  0  0  0  0
  145.4580  155.0760  135.0380 O   0  0  0  0  0  0  0  0  0  0  0  0
  145.1270  154.2330  132.9170 O   0  0  0  0  0  0  0  0  0  0  0  0
  144.2960  153.1540  133.3270 C   0  0  0  0  0  0  0  0  0  0  0  0
  144.7090  151.9130  132.6030 C   0  0  0  0  0  0  0  0  0  0  0  0
  145.9270  151.8860  131.8610 N   0  0  0  0  0  0  0  0  0  0  0  0
  143.9910  150.8800  132.6650 O   0  0  0  0  0  0  0  0  0  0  0  0
  146.7790  157.2750  133.2630 C   0  0  0  0  0  0  0  0  0  0  0  0
  145.7030  158.1190  133.5610 C   0  0  0  0  0  0  0  0  0  0  0  0
  143.0758  159.8394  134.8110 H   0  0  0  0  0  0  0  0  0  0  0  0
  142.7349  160.6727  133.2567 H   0  0  0  0  0  0  0  0  0  0  0  0
  143.2974  158.9667  133.2567 H   0  0  0  0  0  0  0  0  0  0  0  0
  147.2647  161.1021  132.8423 H   0  0  0  0  0  0  0  0  0  0  0  0
  149.1716  159.5336  132.3633 H   0  0  0  0  0  0  0  0  0  0  0  0
  149.9052  156.7729  132.3750 H   0  0  0  0  0  0  0  0  0  0  0  0
  146.9170  153.1740  133.6370 H   0  0  0  0  0  0  0  0  0  0  0  0
  144.4013  152.9998  134.4110 H   0  0  0  0  0  0  0  0  0  0  0  0
  143.2465  153.3863  133.0933 H   0  0  0  0  0  0  0  0  0  0  0  0
  146.5390  152.7320  131.8130 H   0  0  0  0  0  0  0  0  0  0  0  0
  146.2220  151.0180  131.3620 H   0  0  0  0  0  0  0  0  0  0  0  0
  144.7448  157.7050  133.9081 H   0  0  0  0  0  0  0  0  0  0  0  0
  1  2  1  0
  2  3  1  0
  2  4  1  0
  4  5  2  0
  5  6  1  0
  6  7  2  0
  7  8  1  0
  8  9  2  0
  9 10  1  0
 10 11  1  0
 10 12  2  0
  9 13  1  0
 13 14  1  0
 14 15  2  0
 14 16  1  0
 16 17  1  0
 17 18  1  0
 18 19  1  0
 18 20  2  0
 13 21  1  0
 21 22  2  0
 22  4  1  0
 21  7  1  0
  1 23  1  0
  1 24  1  0
  1 25  1  0
  5 26  1  0
  6 27  1  0
  8 28  1  0
 11 29  1  0
 17 30  1  0
 17 31  1  0
 19 32  1  0
 19 33  1  0
 22 34  1  0
M  CHG  1  11  -1
M  END
>  <UniqueID>  (14) 
13

>  <SMILES>  (14) 
CN(F)c1ccc2cc(C([NH-])=O)n(C(=O)OCC(N)=O)c2c1

>  <Energy>  (14) 
67.98878665638617

>  <Genealogy>  (14) 
CN(F)c1ccc2cc(C([NH-])=O)n(C(=O)OCC(N)=O)c2c1 (protonated)
CN(F)c1ccc2cc(C([NH-])=O)n(C(=O)OCC(N)=O)c2c1 (3D coordinates assigned)
CN(F)c1ccc2cc(C([NH-])=O)n(C(=O)OCC(N)=O)c2c1 (optimized conformer: 67.98878665638617 kcal/mol)

>  <smiles>  (14) 
CN(F)c1ccc2cc(C(N)=O)n(C(=O)OCC(N)=O)c2c1

>  <score_type>  (14) 
oracle

>  <origin>  (14) 
adg

>  <m_score__min__energy>  (14) 
-6.4299999999999997

>  <m_primary>  (14) 
energy

$$$$
14:0
     RDKit          3D

 46 48  0  0  0  0  0  0  0  0999 V2000
  141.3740  155.8480  134.6380 N   0  0  0  0  0  0  0  0  0  0  0  0
  141.4640  157.2150  134.2440 C   0  0  0  0  0  0  0  0  0  0  0  0
  140.4140  157.9080  134.1740 O   0  0  0  0  0  0  0  0  0  0  0  0
  142.7740  157.8440  133.9760 C   0  0  0  0  0  0  0  0  0  0  0  0
  142.9510  159.2210  133.8620 C   0  0  0  0  0  0  0  0  0  0  0  0
  144.3060  159.4030  133.7100 C   0  0  0  0  0  0  0  0  0  0  0  0
  145.0350  160.5750  133.5360 C   0  0  0  0  0  0  0  0  0  0  0  0
  146.4260  160.4660  133.3700 C   0  0  0  0  0  0  0  0  0  0  0  0
  147.0560  159.1980  133.3830 C   0  0  0  0  0  0  0  0  0  0  0  0
  148.5380  159.0910  133.1520 C   0  0  0  0  0  0  0  0  0  0  0  0
  148.8770  159.6270  131.8370 N   0  0  0  0  0  0  0  0  0  0  0  0
  148.9680  160.9210  131.4910 C   0  0  0  0  0  0  0  0  0  0  0  0
  149.3810  160.9770  130.1790 C   0  0  0  0  0  0  0  0  0  0  0  0
  149.5570  159.7270  129.7050 N   0  0  0  0  0  0  0  0  0  0  0  0
  149.2430  158.9280  130.7460 C   0  0  0  0  0  0  0  0  0  0  0  0
  146.2820  158.0280  133.5460 C   0  0  0  0  0  0  0  0  0  0  0  0
  144.9010  158.1670  133.7290 C   0  0  0  0  0  0  0  0  0  0  0  0
  143.9720  157.1980  133.8870 N   0  0  0  0  0  0  0  0  0  0  0  0
  144.2080  155.7810  133.8600 C   0  0  0  0  0  0  0  0  0  0  0  0
  143.7320  155.0820  132.9230 O   0  0  0  0  0  0  0  0  0  0  0  0
  144.9840  155.1850  134.8590 O   0  0  0  0  0  0  0  0  0  0  0  0
  144.4180  154.4600  135.9480 C   0  0  0  0  0  0  0  0  0  0  0  0
  143.6130  153.3890  135.4620 O   0  0  0  0  0  0  0  0  0  0  0  0
  142.2340  153.3140  135.6810 C   0  0  0  0  0  0  0  0  0  0  0  0
  141.4380  153.1200  134.7220 O   0  0  0  0  0  0  0  0  0  0  0  0
  141.7020  153.4800  137.0710 C   0  0  0  0  0  0  0  0  0  0  0  0
  141.8940  152.2130  137.9140 C   0  0  0  0  0  0  0  0  0  0  0  0
  140.8230  151.1980  137.6570 C   0  0  0  0  0  0  0  0  0  0  0  0
  140.1010  150.7850  138.6030 O   0  0  0  0  0  0  0  0  0  0  0  0
  140.6110  150.7200  136.3710 O   0  0  0  0  0  0  0  0  0  0  0  0
  142.1530  155.1810  134.4430 H   0  0  0  0  0  0  0  0  0  0  0  0
  142.1726  159.9978  133.8880 H   0  0  0  0  0  0  0  0  0  0  0  0
  144.5380  161.5563  133.5286 H   0  0  0  0  0  0  0  0  0  0  0  0
  147.0309  161.3738  133.2287 H   0  0  0  0  0  0  0  0  0  0  0  0
  149.0699  159.6626  133.9268 H   0  0  0  0  0  0  0  0  0  0  0  0
  148.8359  158.0332  133.1992 H   0  0  0  0  0  0  0  0  0  0  0  0
  148.7513  161.7824  132.1398 H   0  0  0  0  0  0  0  0  0  0  0  0
  149.5428  161.9011  129.6046 H   0  0  0  0  0  0  0  0  0  0  0  0
  149.2817  157.8293  130.7076 H   0  0  0  0  0  0  0  0  0  0  0  0
  146.7519  157.0336  133.5296 H   0  0  0  0  0  0  0  0  0  0  0  0
  145.2267  154.0522  136.5722 H   0  0  0  0  0  0  0  0  0  0  0  0
  143.7898  155.1393  136.5430 H   0  0  0  0  0  0  0  0  0  0  0  0
  142.2308  154.3134  137.5566 H   0  0  0  0  0  0  0  0  0  0  0  0
  140.6229  153.6812  137.0004 H   0  0  0  0  0  0  0  0  0  0  0  0
  142.8700  151.7686  137.6693 H   0  0  0  0  0  0  0  0  0  0  0  0
  141.8411  152.5003  138.9745 H   0  0  0  0  0  0  0  0  0  0  0  0
  1  2  1  0
  2  3  2  0
  2  4  1  0
  4  5  2  0
  5  6  1  0
  6  7  2  0
  7  8  1  0
  8  9  2  0
  9 10  1  0
 10 11  1  0
 11 12  1  0
 12 13  2  0
 13 14  1  0
 14 15  2  0
  9 16  1  0
 16 17  2  0
 17 18  1  0
 18 19  1  0
 19 20  2  0
 19 21  1  0
 21 22  1  0
 22 23  1  0
 23 24  1  0
 24 25  2  0
 24 26  1  0
 26 27  1  0
 27 28  1  0
 28 29  2  0
 28 30  1  0
 18  4  1  0
 17  6  1  0
 15 11  1  0
  1 31  1  0
  5 32  1  0
  7 33  1  0
  8 34  1  0
 10 35  1  0
 10 36  1  0
 12 37  1  0
 13 38  1  0
 15 39  1  0
 16 40  1  0
 22 41  1  0
 22 42  1  0
 26 43  1  0
 26 44  1  0
 27 45  1  0
 27 46  1  0
M  CHG  2   1  -1  30  -1
M  END
>  <UniqueID>  (15) 
14

>  <SMILES>  (15) 
[NH-]C(=O)c1cc2ccc(Cn3ccnc3)cc2n1C(=O)OCOC(=O)CCC(=O)[O-]

>  <Energy>  (15) 
103.91810952563439

>  <Genealogy>  (15) 
[NH-]C(=O)c1cc2ccc(Cn3ccnc3)cc2n1C(=O)OCOC(=O)CCC(=O)[O-] (protonated)
[NH-]C(=O)c1cc2ccc(Cn3ccnc3)cc2n1C(=O)OCOC(=O)CCC(=O)[O-] (3D coordinates assigned)
[NH-]C(=O)c1cc2ccc(Cn3ccnc3)cc2n1C(=O)OCOC(=O)CCC(=O)[O-] (optimized conformer: 103.91810952563439 kcal/mol)

>  <smiles>  (15) 
NC(=O)c1cc2ccc(Cn3ccnc3)cc2n1C(=O)OCOC(=O)CCC(=O)O

>  <score_type>  (15) 
oracle

>  <origin>  (15) 
adg

>  <m_score__min__energy>  (15) 
-7.7000000000000002

>  <m_primary>  (15) 
energy

$$$$
15:0
     RDKit          3D

 38 39  0  0  0  0  0  0  0  0999 V2000
  145.9820  156.0890  134.5400 C   0  0  0  0  0  0  0  0  0  0  0  0
  145.9620  157.4560  134.0050 N   0  0  0  0  0  0  0  0  0  0  0  0
  147.2370  158.1260  133.7230 C   0  0  0  0  0  0  0  0  0  0  0  0
  144.7020  158.1330  133.7570 C   0  0  0  0  0  0  0  0  0  0  0  0
  144.6510  159.5490  133.6130 C   0  0  0  0  0  0  0  0  0  0  0  0
  143.4350  160.2130  133.3830 C   0  0  0  0  0  0  0  0  0  0  0  0
  142.2800  159.4470  133.2900 C   0  0  0  0  0  0  0  0  0  0  0  0
  140.9720  159.8330  133.1020 C   0  0  0  0  0  0  0  0  0  0  0  0
  140.2320  158.6510  133.1120 C   0  0  0  0  0  0  0  0  0  0  0  0
  138.7690  158.5760  132.8920 C   0  0  0  0  0  0  0  0  0  0  0  0
  137.9970  157.5060  133.4420 N   0  0  0  0  0  0  0  0  0  0  0  0
  138.1840  159.4700  132.2260 O   0  0  0  0  0  0  0  0  0  0  0  0
  141.0550  157.5800  133.2890 N   0  0  0  0  0  0  0  0  0  0  0  0
  140.6750  156.1990  133.4180 C   0  0  0  0  0  0  0  0  0  0  0  0
  139.8500  155.7120  132.6000 O   0  0  0  0  0  0  0  0  0  0  0  0
  141.2750  155.3570  134.4780 C   0  0  0  0  0  0  0  0  0  0  0  0
  141.3420  154.1130  134.2970 O   0  0  0  0  0  0  0  0  0  0  0  0
  141.7860  155.8930  135.7070 N   0  0  0  0  0  0  0  0  0  0  0  0
  140.9900  156.3830  136.8240 C   0  0  0  0  0  0  0  0  0  0  0  0
  140.2550  157.6100  136.4030 C   0  0  0  0  0  0  0  0  0  0  0  0
  139.1320  157.5150  135.8410 O   0  0  0  0  0  0  0  0  0  0  0  0
  140.8310  158.8620  136.5830 O   0  0  0  0  0  0  0  0  0  0  0  0
  142.3020  158.0840  133.4050 C   0  0  0  0  0  0  0  0  0  0  0  0
  143.4940  157.3950  133.6560 C   0  0  0  0  0  0  0  0  0  0  0  0
  145.9815  156.1255  135.6394 H   0  0  0  0  0  0  0  0  0  0  0  0
  145.0917  155.5455  134.1907 H   0  0  0  0  0  0  0  0  0  0  0  0
  146.8878  155.5718  134.1907 H   0  0  0  0  0  0  0  0  0  0  0  0
  147.7319  158.3861  134.6703 H   0  0  0  0  0  0  0  0  0  0  0  0
  147.8851  157.4520  133.1437 H   0  0  0  0  0  0  0  0  0  0  0  0
  147.0495  159.0421  133.1437 H   0  0  0  0  0  0  0  0  0  0  0  0
  145.5805  160.1330  133.6832 H   0  0  0  0  0  0  0  0  0  0  0  0
  143.3983  161.3075  133.2795 H   0  0  0  0  0  0  0  0  0  0  0  0
  140.5913  160.8567  132.9716 H   0  0  0  0  0  0  0  0  0  0  0  0
  138.4470  156.7090  133.9430 H   0  0  0  0  0  0  0  0  0  0  0  0
  136.9620  157.4860  133.3080 H   0  0  0  0  0  0  0  0  0  0  0  0
  140.2698  155.6096  137.1295 H   0  0  0  0  0  0  0  0  0  0  0  0
  141.6501  156.6207  137.6712 H   0  0  0  0  0  0  0  0  0  0  0  0
  143.4946  156.3012  133.7729 H   0  0  0  0  0  0  0  0  0  0  0  0
  1  2  1  0
  2  3  1  0
  2  4  1  0
  4  5  2  0
  5  6  1  0
  6  7  2  0
  7  8  1  0
  8  9  2  0
  9 10  1  0
 10 11  1  0
 10 12  2  0
  9 13  1  0
 13 14  1  0
 14 15  2  0
 14 16  1  0
 16 17  2  0
 16 18  1  0
 18 19  1  0
 19 20  1  0
 20 21  2  0
 20 22  1  0
 13 23  1  0
 23 24  2  0
 24  4  1  0
 23  7  1  0
  1 25  1  0
  1 26  1  0
  1 27  1  0
  3 28  1  0
  3 29  1  0
  3 30  1  0
  5 31  1  0
  6 32  1  0
  8 33  1  0
 11 34  1  0
 11 35  1  0
 19 36  1  0
 19 37  1  0
 24 38  1  0
M  CHG  2  18  -1  22  -1
M  END
>  <UniqueID>  (16) 
15

>  <SMILES>  (16) 
CN(C)c1ccc2cc(C(N)=O)n(C(=O)C(=O)[N-]CC(=O)[O-])c2c1

>  <Energy>  (16) 
77.26293369672695

>  <Genealogy>  (16) 
CN(C)c1ccc2cc(C(N)=O)n(C(=O)C(=O)[N-]CC(=O)[O-])c2c1 (protonated)
CN(C)c1ccc2cc(C(N)=O)n(C(=O)C(=O)[N-]CC(=O)[O-])c2c1 (3D coordinates assigned)
CN(C)c1ccc2cc(C(N)=O)n(C(=O)C(=O)[N-]CC(=O)[O-])c2c1 (optimized conformer: 77.26293369672695 kcal/mol)

>  <smiles>  (16) 
CN(C)c1ccc2cc(C(N)=O)n(C(=O)C(=O)NCC(=O)O)c2c1

>  <score_type>  (16) 
oracle

>  <origin>  (16) 
adg

>  <m_score__min__energy>  (16) 
-7.1500000000000004

>  <m_primary>  (16) 
energy

$$$$
16:0
     RDKit          3D

 51 53  0  0  0  0  0  0  0  0999 V2000
  140.3340  158.7520  135.6280 C   0  0  0  0  0  0  0  0  0  0  0  0
  140.2530  157.8100  134.4200 C   0  0  1  0  0  0  0  0  0  0  0  0
  139.7100  158.5080  133.1790 C   0  0  0  0  0  0  0  0  0  0  0  0
  139.8590  159.9010  132.9920 C   0  0  0  0  0  0  0  0  0  0  0  0
  139.4030  160.5130  131.8210 C   0  0  0  0  0  0  0  0  0  0  0  0
  138.8050  159.7480  130.8180 C   0  0  0  0  0  0  0  0  0  0  0  0
  138.6680  158.3690  130.9820 C   0  0  0  0  0  0  0  0  0  0  0  0
  139.1220  157.7490  132.1520 C   0  0  0  0  0  0  0  0  0  0  0  0
  141.5640  157.1750  134.1770 N   0  0  0  0  0  0  0  0  0  0  0  0
  141.7150  155.7250  134.3070 C   0  0  0  0  0  0  0  0  0  0  0  0
  142.7540  157.9560  133.9860 C   0  0  0  0  0  0  0  0  0  0  0  0
  142.6850  159.3670  133.9780 C   0  0  0  0  0  0  0  0  0  0  0  0
  143.8310  160.1330  133.7120 C   0  0  0  0  0  0  0  0  0  0  0  0
  145.0240  159.4620  133.4700 C   0  0  0  0  0  0  0  0  0  0  0  0
  146.2640  159.9550  133.1380 C   0  0  0  0  0  0  0  0  0  0  0  0
  147.0790  158.8340  132.9830 C   0  0  0  0  0  0  0  0  0  0  0  0
  148.5270  158.9190  132.7050 C   0  0  0  0  0  0  0  0  0  0  0  0
  149.0590  158.4730  131.4600 N   0  0  0  0  0  0  0  0  0  0  0  0
  149.3120  159.3350  133.5990 O   0  0  0  0  0  0  0  0  0  0  0  0
  146.3680  157.6910  133.2030 N   0  0  0  0  0  0  0  0  0  0  0  0
  146.8090  156.3330  133.0460 C   0  0  0  0  0  0  0  0  0  0  0  0
  147.7370  156.0640  132.2380 O   0  0  0  0  0  0  0  0  0  0  0  0
  146.1760  155.3110  133.7610 O   0  0  0  0  0  0  0  0  0  0  0  0
  146.8710  154.3150  134.5160 C   0  0  0  0  0  0  0  0  0  0  0  0
  147.6100  154.9410  135.7030 C   0  0  0  0  0  0  0  0  0  0  0  0
  147.7920  153.9620  136.8190 C   0  0  0  0  0  0  0  0  0  0  0  0
  146.9980  152.9920  136.9470 O   0  0  0  0  0  0  0  0  0  0  0  0
  148.8570  154.1090  137.7030 O   0  0  0  0  0  0  0  0  0  0  0  0
  145.1130  158.0940  133.5040 C   0  0  0  0  0  0  0  0  0  0  0  0
  143.9830  157.3080  133.7550 C   0  0  0  0  0  0  0  0  0  0  0  0
  140.2834  158.1635  136.5559 H   0  0  0  0  0  0  0  0  0  0  0  0
  141.2832  159.3071  135.5971 H   0  0  0  0  0  0  0  0  0  0  0  0
  139.4935  159.4609  135.5971 H   0  0  0  0  0  0  0  0  0  0  0  0
  139.5301  157.0154  134.6569 H   0  0  0  0  0  0  0  0  0  0  0  0
  140.3376  160.5084  133.7743 H   0  0  0  0  0  0  0  0  0  0  0  0
  139.5155  161.5993  131.6895 H   0  0  0  0  0  0  0  0  0  0  0  0
  138.4421  160.2318  129.8992 H   0  0  0  0  0  0  0  0  0  0  0  0
  138.2013  157.7667  130.1886 H   0  0  0  0  0  0  0  0  0  0  0  0
  139.0179  156.6602  132.2687 H   0  0  0  0  0  0  0  0  0  0  0  0
  141.7433  155.4534  135.3726 H   0  0  0  0  0  0  0  0  0  0  0  0
  140.8643  155.2229  133.8231 H   0  0  0  0  0  0  0  0  0  0  0  0
  142.6509  155.4090  133.8231 H   0  0  0  0  0  0  0  0  0  0  0  0
  141.7274  159.8686  134.1815 H   0  0  0  0  0  0  0  0  0  0  0  0
  143.7861  161.2320  133.6956 H   0  0  0  0  0  0  0  0  0  0  0  0
  146.5521  161.0100  133.0197 H   0  0  0  0  0  0  0  0  0  0  0  0
  148.9300  157.4870  131.1410 H   0  0  0  0  0  0  0  0  0  0  0  0
  146.1462  153.5779  134.8919 H   0  0  0  0  0  0  0  0  0  0  0  0
  147.6092  153.8303  133.8602 H   0  0  0  0  0  0  0  0  0  0  0  0
  148.5988  155.2855  135.3660 H   0  0  0  0  0  0  0  0  0  0  0  0
  147.0071  155.7811  136.0783 H   0  0  0  0  0  0  0  0  0  0  0  0
  144.0528  156.2103  133.7715 H   0  0  0  0  0  0  0  0  0  0  0  0
  1  2  1  0
  2  3  1  0
  3  4  2  0
  4  5  1  0
  5  6  2  0
  6  7  1  0
  7  8  2  0
  2  9  1  0
  9 10  1  0
  9 11  1  0
 11 12  2  0
 12 13  1  0
 13 14  2  0
 14 15  1  0
 15 16  2  0
 16 17  1  0
 17 18  1  0
 17 19  2  0
 16 20  1  0
 20 21  1  0
 21 22  2  0
 21 23  1  0
 23 24  1  0
 24 25  1  0
 25 26  1  0
 26 27  2  0
 26 28  1  0
 20 29  1  0
 29 30  2  0
  8  3  1  0
 30 11  1  0
 29 14  1  0
  1 31  1  0
  1 32  1  0
  1 33  1  0
  2 34  1  1
  4 35  1  0
  5 36  1  0
  6 37  1  0
  7 38  1  0
  8 39  1  0
 10 40  1  0
 10 41  1  0
 10 42  1  0
 12 43  1  0
 13 44  1  0
 15 45  1  0
 18 46  1  0
 24 47  1  0
 24 48  1  0
 25 49  1  0
 25 50  1  0
 30 51  1  0
M  CHG  2  18  -1  28  -1
M  END
>  <UniqueID>  (17) 
16

>  <SMILES>  (17) 
C[C@@H](c1ccccc1)N(C)c1ccc2cc(C([NH-])=O)n(C(=O)OCCC(=O)[O-])c2c1

>  <Energy>  (17) 
92.3883012370539

>  <Genealogy>  (17) 
CC(c1ccccc1)N(C)c1ccc2cc(C([NH-])=O)n(C(=O)OCCC(=O)[O-])c2c1 (protonated)
C[C@@H](c1ccccc1)N(C)c1ccc2cc(C([NH-])=O)n(C(=O)OCCC(=O)[O-])c2c1 (chirality)
C[C@@H](c1ccccc1)N(C)c1ccc2cc(C([NH-])=O)n(C(=O)OCCC(=O)[O-])c2c1 (3D coordinates assigned)
C[C@@H](c1ccccc1)N(C)c1ccc2cc(C([NH-])=O)n(C(=O)OCCC(=O)[O-])c2c1 (optimized conformer: 92.3883012370539 kcal/mol)

>  <smiles>  (17) 
CC(c1ccccc1)N(C)c1ccc2cc(C(N)=O)n(C(=O)OCCC(=O)O)c2c1

>  <score_type>  (17) 
oracle

>  <origin>  (17) 
adg

>  <m_score__min__energy>  (17) 
-9.1899999999999995

>  <m_primary>  (17) 
energy

$$$$
18:0
     RDKit          3D

 43 44  0  0  0  0  0  0  0  0999 V2000
  141.3470  157.1420  132.9690 C   0  0  0  0  0  0  0  0  0  0  0  0
  141.9790  156.6600  134.1340 O   0  0  0  0  0  0  0  0  0  0  0  0
  141.2870  157.1000  135.2880 C   0  0  0  0  0  0  0  0  0  0  0  0
  141.5990  158.5680  135.5920 C   0  0  0  0  0  0  0  0  0  0  0  0
  142.8790  158.9210  135.0960 O   0  0  0  0  0  0  0  0  0  0  0  0
  142.8340  160.1070  134.3210 C   0  0  0  0  0  0  0  0  0  0  0  0
  144.1500  160.8690  134.4350 C   0  0  0  0  0  0  0  0  0  0  0  0
  145.0370  160.4670  133.3960 O   0  0  0  0  0  0  0  0  0  0  0  0
  145.1640  159.1390  132.9800 C   0  0  0  0  0  0  0  0  0  0  0  0
  144.1500  158.4910  132.6040 O   0  0  0  0  0  0  0  0  0  0  0  0
  146.4570  158.5140  132.9870 N   0  0  0  0  0  0  0  0  0  0  0  0
  146.7800  157.3020  133.5180 C   0  0  0  0  0  0  0  0  0  0  0  0
  145.9030  156.4690  134.3640 C   0  0  0  0  0  0  0  0  0  0  0  0
  144.4930  156.6920  134.4100 N   0  0  0  0  0  0  0  0  0  0  0  0
  146.4120  155.5830  135.1000 O   0  0  0  0  0  0  0  0  0  0  0  0
  148.0930  156.9620  133.2060 C   0  0  0  0  0  0  0  0  0  0  0  0
  148.5770  158.0210  132.4720 C   0  0  0  0  0  0  0  0  0  0  0  0
  149.8260  158.2060  131.8840 C   0  0  0  0  0  0  0  0  0  0  0  0
  150.0370  159.3800  131.1430 C   0  0  0  0  0  0  0  0  0  0  0  0
  149.0070  160.3420  131.0080 C   0  0  0  0  0  0  0  0  0  0  0  0
  149.2290  161.5660  130.1690 C   0  0  0  0  0  0  0  0  0  0  0  0
  147.7470  160.1140  131.6030 C   0  0  0  0  0  0  0  0  0  0  0  0
  147.5700  158.9440  132.3520 C   0  0  0  0  0  0  0  0  0  0  0  0
  140.5015  157.7868  133.2506 H   0  0  0  0  0  0  0  0  0  0  0  0
  142.0679  157.7217  132.3739 H   0  0  0  0  0  0  0  0  0  0  0  0
  140.9786  156.2934  132.3739 H   0  0  0  0  0  0  0  0  0  0  0  0
  140.2052  156.9896  135.1220 H   0  0  0  0  0  0  0  0  0  0  0  0
  141.6113  156.4896  136.1437 H   0  0  0  0  0  0  0  0  0  0  0  0
  140.8389  159.2048  135.1158 H   0  0  0  0  0  0  0  0  0  0  0  0
  141.5897  158.7132  136.6823 H   0  0  0  0  0  0  0  0  0  0  0  0
  142.6576  159.8446  133.2674 H   0  0  0  0  0  0  0  0  0  0  0  0
  142.0195  160.7453  134.6940 H   0  0  0  0  0  0  0  0  0  0  0  0
  143.9546  161.9482  134.3500 H   0  0  0  0  0  0  0  0  0  0  0  0
  144.6114  160.6491  135.4090 H   0  0  0  0  0  0  0  0  0  0  0  0
  143.8830  156.0800  134.9970 H   0  0  0  0  0  0  0  0  0  0  0  0
  144.0590  157.5130  133.9340 H   0  0  0  0  0  0  0  0  0  0  0  0
  148.6293  156.0434  133.4861 H   0  0  0  0  0  0  0  0  0  0  0  0
  150.6225  157.4557  131.9966 H   0  0  0  0  0  0  0  0  0  0  0  0
  151.0114  159.5538  130.6631 H   0  0  0  0  0  0  0  0  0  0  0  0
  149.3867  162.4357  130.8238 H   0  0  0  0  0  0  0  0  0  0  0  0
  150.1152  161.4195  129.5341 H   0  0  0  0  0  0  0  0  0  0  0  0
  148.3478  161.7401  129.5341 H   0  0  0  0  0  0  0  0  0  0  0  0
  146.9262  160.8362  131.4814 H   0  0  0  0  0  0  0  0  0  0  0  0
  1  2  1  0
  2  3  1  0
  3  4  1  0
  4  5  1  0
  5  6  1  0
  6  7  1  0
  7  8  1  0
  8  9  1  0
  9 10  2  0
  9 11  1  0
 11 12  1  0
 12 13  1  0
 13 14  1  0
 13 15  2  0
 12 16  2  0
 16 17  1  0
 17 18  2  0
 18 19  1  0
 19 20  2  0
 20 21  1  0
 20 22  1  0
 22 23  2  0
 23 11  1  0
 23 17  1  0
  1 24  1  0
  1 25  1  0
  1 26  1  0
  3 27  1  0
  3 28  1  0
  4 29  1  0
  4 30  1  0
  6 31  1  0
  6 32  1  0
  7 33  1  0
  7 34  1  0
 14 35  1  0
 14 36  1  0
 16 37  1  0
 18 38  1  0
 19 39  1  0
 21 40  1  0
 21 41  1  0
 21 42  1  0
 22 43  1  0
M  END
>  <UniqueID>  (18) 
17

>  <SMILES>  (18) 
COCCOCCOC(=O)n1c(C(N)=O)cc2ccc(C)cc21

>  <Energy>  (18) 
79.91049759907294

>  <Genealogy>  (18) 
COCCOCCOC(=O)n1c(C(N)=O)cc2ccc(C)cc21 (3D coordinates assigned)
COCCOCCOC(=O)n1c(C(N)=O)cc2ccc(C)cc21 (optimized conformer: 79.91049759907294 kcal/mol)

>  <smiles>  (18) 
COCCOCCOC(=O)n1c(C(N)=O)cc2ccc(C)cc21

>  <score_type>  (18) 
oracle

>  <origin>  (18) 
adg

>  <m_score__min__energy>  (18) 
-5.8399999999999999

>  <m_primary>  (18) 
energy

$$$$
19:0
     RDKit          3D

 36 37  0  0  0  0  0  0  0  0999 V2000
  148.8520  157.2990  133.2050 N   0  0  0  0  0  0  0  0  0  0  0  0
  148.3880  158.6480  133.1230 C   0  0  0  0  0  0  0  0  0  0  0  0
  149.1810  159.5520  132.7520 O   0  0  0  0  0  0  0  0  0  0  0  0
  146.9780  158.9900  133.4020 C   0  0  0  0  0  0  0  0  0  0  0  0
  146.4840  160.2900  133.3630 C   0  0  0  0  0  0  0  0  0  0  0  0
  145.1370  160.1750  133.6200 C   0  0  0  0  0  0  0  0  0  0  0  0
  144.1560  161.1570  133.7140 C   0  0  0  0  0  0  0  0  0  0  0  0
  142.8480  160.7560  134.0310 C   0  0  0  0  0  0  0  0  0  0  0  0
  142.5520  159.3910  134.2690 C   0  0  0  0  0  0  0  0  0  0  0  0
  141.1480  158.9700  134.5880 C   0  0  0  0  0  0  0  0  0  0  0  0
  140.7390  159.5810  135.7590 F   0  0  0  0  0  0  0  0  0  0  0  0
  143.5690  158.4190  134.1520 C   0  0  0  0  0  0  0  0  0  0  0  0
  144.8590  158.8450  133.8130 C   0  0  0  0  0  0  0  0  0  0  0  0
  145.9830  158.1030  133.6850 N   0  0  0  0  0  0  0  0  0  0  0  0
  146.1110  156.6930  133.9300 C   0  0  0  0  0  0  0  0  0  0  0  0
  146.7060  156.2870  134.9650 O   0  0  0  0  0  0  0  0  0  0  0  0
  145.5720  155.7760  133.0220 O   0  0  0  0  0  0  0  0  0  0  0  0
  146.2650  154.6030  132.6030 C   0  0  0  0  0  0  0  0  0  0  0  0
  147.4760  154.4570  133.3410 O   0  0  0  0  0  0  0  0  0  0  0  0
  148.6910  154.1100  132.7440 C   0  0  0  0  0  0  0  0  0  0  0  0
  149.5780  154.9810  132.5290 O   0  0  0  0  0  0  0  0  0  0  0  0
  148.9190  152.6980  132.3100 C   0  0  0  0  0  0  0  0  0  0  0  0
  150.2880  152.4010  132.3460 O   0  0  0  0  0  0  0  0  0  0  0  0
  149.8600  157.0830  133.0440 H   0  0  0  0  0  0  0  0  0  0  0  0
  148.1870  156.5070  133.3400 H   0  0  0  0  0  0  0  0  0  0  0  0
  147.0496  161.2131  133.1682 H   0  0  0  0  0  0  0  0  0  0  0  0
  144.3979  162.2167  133.5450 H   0  0  0  0  0  0  0  0  0  0  0  0
  142.0472  161.5074  134.0950 H   0  0  0  0  0  0  0  0  0  0  0  0
  140.4801  159.2678  133.7663 H   0  0  0  0  0  0  0  0  0  0  0  0
  141.1117  157.8776  134.7120 H   0  0  0  0  0  0  0  0  0  0  0  0
  143.3535  157.3539  134.3228 H   0  0  0  0  0  0  0  0  0  0  0  0
  145.6270  153.7234  132.7739 H   0  0  0  0  0  0  0  0  0  0  0  0
  146.5049  154.6905  131.5330 H   0  0  0  0  0  0  0  0  0  0  0  0
  148.3807  152.0176  132.9862 H   0  0  0  0  0  0  0  0  0  0  0  0
  148.5489  152.5719  131.2818 H   0  0  0  0  0  0  0  0  0  0  0  0
  150.7680  153.2510  132.1580 H   0  0  0  0  0  0  0  0  0  0  0  0
  1  2  1  0
  2  3  2  0
  2  4  1  0
  4  5  2  0
  5  6  1  0
  6  7  2  0
  7  8  1  0
  8  9  2  0
  9 10  1  0
 10 11  1  0
  9 12  1  0
 12 13  2  0
 13 14  1  0
 14 15  1  0
 15 16  2  0
 15 17  1  0
 17 18  1  0
 18 19  1  0
 19 20  1  0
 20 21  2  0
 20 22  1  0
 22 23  1  0
 14  4  1  0
 13  6  1  0
  1 24  1  0
  1 25  1  0
  5 26  1  0
  7 27  1  0
  8 28  1  0
 10 29  1  0
 10 30  1  0
 12 31  1  0
 18 32  1  0
 18 33  1  0
 22 34  1  0
 22 35  1  0
 23 36  1  0
M  END
>  <UniqueID>  (19) 
18

>  <SMILES>  (19) 
NC(=O)c1cc2ccc(CF)cc2n1C(=O)OCOC(=O)CO

>  <Energy>  (19) 
69.46174995290814

>  <Genealogy>  (19) 
NC(=O)c1cc2ccc(CF)cc2n1C(=O)OCOC(=O)CO (3D coordinates assigned)
NC(=O)c1cc2ccc(CF)cc2n1C(=O)OCOC(=O)CO (optimized conformer: 69.46174995290814 kcal/mol)

>  <smiles>  (19) 
NC(=O)c1cc2ccc(CF)cc2n1C(=O)OCOC(=O)CO

>  <score_type>  (19) 
oracle

>  <origin>  (19) 
adg

>  <m_score__min__energy>  (19) 
-5.1600000000000001

>  <m_primary>  (19) 
energy

$$$$
20:0
     RDKit          3D

 48 49  0  0  0  0  0  0  0  0999 V2000
  145.7020  162.7160  134.5000 C   0  0  0  0  0  0  0  0  0  0  0  0
  144.9360  161.8390  134.1870 C   0  0  0  0  0  0  0  0  0  0  0  0
  144.0210  160.7900  133.8130 C   0  0  0  0  0  0  0  0  0  0  0  0
  142.8010  161.0770  133.6890 O   0  0  0  0  0  0  0  0  0  0  0  0
  144.4740  159.4350  133.5970 N   0  0  0  0  0  0  0  0  0  0  0  0
  145.7930  159.2200  132.9950 C   0  0  0  0  0  0  0  0  0  0  0  0
  143.6240  158.2810  133.9350 C   0  0  0  0  0  0  0  0  0  0  0  0
  144.1610  157.0020  133.2970 C   0  0  0  0  0  0  0  0  0  0  0  0
  143.0820  156.2020  132.8230 O   0  0  0  0  0  0  0  0  0  0  0  0
  142.3430  155.3630  133.6630 C   0  0  0  0  0  0  0  0  0  0  0  0
  142.8670  154.9060  134.7180 O   0  0  0  0  0  0  0  0  0  0  0  0
  140.9900  155.0070  133.3230 N   0  0  0  0  0  0  0  0  0  0  0  0
  140.6810  153.6050  133.0150 C   0  0  0  0  0  0  0  0  0  0  0  0
  139.9350  155.9920  133.3430 C   0  0  0  0  0  0  0  0  0  0  0  0
  138.7720  155.6710  132.9750 O   0  0  0  0  0  0  0  0  0  0  0  0
  140.1830  157.3380  133.7870 N   0  0  0  0  0  0  0  0  0  0  0  0
  140.0200  158.4960  133.0860 C   0  0  0  0  0  0  0  0  0  0  0  0
  139.6710  158.5990  131.6560 C   0  0  0  0  0  0  0  0  0  0  0  0
  138.5390  157.9170  131.1180 N   0  0  0  0  0  0  0  0  0  0  0  0
  140.4090  159.2710  130.8860 O   0  0  0  0  0  0  0  0  0  0  0  0
  140.2660  159.6000  133.8990 C   0  0  0  0  0  0  0  0  0  0  0  0
  140.6140  159.0770  135.1240 C   0  0  0  0  0  0  0  0  0  0  0  0
  140.9690  159.7230  136.3030 C   0  0  0  0  0  0  0  0  0  0  0  0
  141.2630  158.9310  137.4250 C   0  0  0  0  0  0  0  0  0  0  0  0
  141.1720  157.5160  137.3590 C   0  0  0  0  0  0  0  0  0  0  0  0
  141.5120  156.6720  138.5610 C   0  0  0  0  0  0  0  0  0  0  0  0
  141.9520  157.4920  139.5840 F   0  0  0  0  0  0  0  0  0  0  0  0
  140.4040  155.9650  138.9950 F   0  0  0  0  0  0  0  0  0  0  0  0
  142.5090  155.7640  138.2500 F   0  0  0  0  0  0  0  0  0  0  0  0
  140.8290  156.8980  136.1350 C   0  0  0  0  0  0  0  0  0  0  0  0
  140.5580  157.7120  135.0290 C   0  0  0  0  0  0  0  0  0  0  0  0
  146.4008  163.5161  134.7856 H   0  0  0  0  0  0  0  0  0  0  0  0
  146.5434  159.0977  133.7900 H   0  0  0  0  0  0  0  0  0  0  0  0
  145.7683  158.3140  132.3716 H   0  0  0  0  0  0  0  0  0  0  0  0
  146.0572  160.0869  132.3716 H   0  0  0  0  0  0  0  0  0  0  0  0
  143.6034  158.1569  135.0278 H   0  0  0  0  0  0  0  0  0  0  0  0
  142.6106  158.4667  133.5497 H   0  0  0  0  0  0  0  0  0  0  0  0
  144.8177  157.2636  132.4542 H   0  0  0  0  0  0  0  0  0  0  0  0
  144.7272  156.4340  134.0498 H   0  0  0  0  0  0  0  0  0  0  0  0
  140.5570  153.0424  133.9521 H   0  0  0  0  0  0  0  0  0  0  0  0
  139.7502  153.5544  132.4311 H   0  0  0  0  0  0  0  0  0  0  0  0
  141.5043  153.1678  132.4311 H   0  0  0  0  0  0  0  0  0  0  0  0
  138.0130  157.2140  131.6820 H   0  0  0  0  0  0  0  0  0  0  0  0
  138.2740  158.0490  130.1170 H   0  0  0  0  0  0  0  0  0  0  0  0
  140.1970  160.6622  133.6216 H   0  0  0  0  0  0  0  0  0  0  0  0
  141.0181  160.8207  136.3553 H   0  0  0  0  0  0  0  0  0  0  0  0
  141.5673  159.4129  138.3659 H   0  0  0  0  0  0  0  0  0  0  0  0
  140.7762  155.8023  136.0534 H   0  0  0  0  0  0  0  0  0  0  0  0
  1  2  3  0
  2  3  1  0
  3  4  2  0
  3  5  1  0
  5  6  1  0
  5  7  1  0
  7  8  1  0
  8  9  1  0
  9 10  1  0
 10 11  2  0
 10 12  1  0
 12 13  1  0
 12 14  1  0
 14 15  2  0
 14 16  1  0
 16 17  1  0
 17 18  1  0
 18 19  1  0
 18 20  2  0
 17 21  2  0
 21 22  1  0
 22 23  2  0
 23 24  1  0
 24 25  2  0
 25 26  1  0
 26 27  1  0
 26 28  1  0
 26 29  1  0
 25 30  1  0
 30 31  2  0
 31 16  1  0
 31 22  1  0
  1 32  1  0
  6 33  1  0
  6 34  1  0
  6 35  1  0
  7 36  1  0
  7 37  1  0
  8 38  1  0
  8 39  1  0
 13 40  1  0
 13 41  1  0
 13 42  1  0
 19 43  1  0
 19 44  1  0
 21 45  1  0
 23 46  1  0
 24 47  1  0
 30 48  1  0
M  END
>  <UniqueID>  (20) 
19

>  <SMILES>  (20) 
C#CC(=O)N(C)CCOC(=O)N(C)C(=O)n1c(C(N)=O)cc2ccc(C(F)(F)F)cc21

>  <Energy>  (20) 
77.64354160712521

>  <Genealogy>  (20) 
C#CC(=O)N(C)CCOC(=O)N(C)C(=O)n1c(C(N)=O)cc2ccc(C(F)(F)F)cc21 (3D coordinates assigned)
C#CC(=O)N(C)CCOC(=O)N(C)C(=O)n1c(C(N)=O)cc2ccc(C(F)(F)F)cc21 (optimized conformer: 77.64354160712521 kcal/mol)

>  <smiles>  (20) 
C#CC(=O)N(C)CCOC(=O)N(C)C(=O)n1c(C(N)=O)cc2ccc(C(F)(F)F)cc21

>  <score_type>  (20) 
oracle

>  <origin>  (20) 
adg

>  <m_score__min__energy>  (20) 
-7.9800000000000004

>  <m_primary>  (20) 
energy

$$$$
21:0
     RDKit          3D

 37 39  0  0  0  0  0  0  0  0999 V2000
  145.1840  161.9090  133.0430 H   0  0  0  0  0  0  0  0  0  0  0  0
  144.4580  161.6890  133.7600 N   0  0  0  0  0  0  0  0  0  0  0  0
  143.7230  160.4690  133.7070 C   0  0  0  0  0  0  0  0  0  0  0  0
  142.4700  160.4970  133.8270 O   0  0  0  0  0  0  0  0  0  0  0  0
  144.4360  159.1850  133.5440 C   0  0  0  0  0  0  0  0  0  0  0  0
  143.8450  157.9370  133.7460 C   0  0  0  0  0  0  0  0  0  0  0  0
  142.8243  157.7312  134.1009 H   0  0  0  0  0  0  0  0  0  0  0  0
  144.8130  157.0180  133.4060 C   0  0  0  0  0  0  0  0  0  0  0  0
  144.7710  155.6260  133.4100 C   0  0  0  0  0  0  0  0  0  0  0  0
  143.8622  155.0870  133.7159 H   0  0  0  0  0  0  0  0  0  0  0  0
  145.9260  154.9310  133.0110 C   0  0  0  0  0  0  0  0  0  0  0  0
  145.9206  153.8311  132.9947 H   0  0  0  0  0  0  0  0  0  0  0  0
  147.0990  155.6330  132.6290 C   0  0  0  0  0  0  0  0  0  0  0  0
  148.2670  154.9100  132.1970 N   0  0  0  0  0  0  0  0  0  0  0  0
  148.0940  154.4970  131.2510 H   0  0  0  0  0  0  0  0  0  0  0  0
  149.0790  155.5670  132.1080 H   0  0  0  0  0  0  0  0  0  0  0  0
  148.5300  153.8130  133.1400 C   0  0  0  0  0  0  0  0  0  0  0  0
  148.3643  154.3993  134.0558 H   0  0  0  0  0  0  0  0  0  0  0  0
  149.5800  152.8060  132.6910 C   0  0  0  0  0  0  0  0  0  0  0  0
  150.1440  152.9766  131.7621 H   0  0  0  0  0  0  0  0  0  0  0  0
  150.4724  152.3555  133.1500 H   0  0  0  0  0  0  0  0  0  0  0  0
  148.1030  152.4450  132.6290 C   0  0  0  0  0  0  0  0  0  0  0  0
  147.5995  152.3543  131.6552 H   0  0  0  0  0  0  0  0  0  0  0  0
  147.4857  151.6251  133.0247 H   0  0  0  0  0  0  0  0  0  0  0  0
  147.0980  157.0470  132.6290 C   0  0  0  0  0  0  0  0  0  0  0  0
  147.9926  157.6117  132.3275 H   0  0  0  0  0  0  0  0  0  0  0  0
  145.9310  157.7090  133.0220 C   0  0  0  0  0  0  0  0  0  0  0  0
  145.7180  159.0380  133.1080 N   0  0  0  0  0  0  0  0  0  0  0  0
  146.6830  160.0610  132.8270 C   0  0  0  0  0  0  0  0  0  0  0  0
  146.9650  160.9020  133.7210 O   0  0  0  0  0  0  0  0  0  0  0  0
  147.3560  160.0920  131.5100 C   0  0  0  0  0  0  0  0  0  0  0  0
  146.8829  160.6935  130.7199 H   0  0  0  0  0  0  0  0  0  0  0  0
  148.4920  159.4520  131.1930 C   0  0  0  0  0  0  0  0  0  0  0  0
  148.7739  159.4281  130.1300 H   0  0  0  0  0  0  0  0  0  0  0  0
  149.3960  158.7780  132.1430 C   0  0  0  0  0  0  0  0  0  0  0  0
  149.6080  159.3010  133.2680 O   0  0  0  0  0  0  0  0  0  0  0  0
  149.9410  157.5310  131.8620 O   0  0  0  0  0  0  0  0  0  0  0  0
  1  2  1  0
  2  3  1  0
  3  4  2  0
  3  5  1  0
  5  6  2  0
  6  7  1  0
  6  8  1  0
  8  9  2  0
  9 10  1  0
  9 11  1  0
 11 12  1  0
 11 13  2  0
 13 14  1  0
 14 15  1  0
 14 16  1  0
 14 17  1  0
 17 18  1  0
 17 19  1  0
 19 20  1  0
 19 21  1  0
 19 22  1  0
 22 23  1  0
 22 24  1  0
 13 25  1  0
 25 26  1  0
 25 27  2  0
 27 28  1  0
 28 29  1  0
 29 30  2  0
 29 31  1  0
 31 32  1  0
 31 33  2  0
 33 34  1  0
 33 35  1  0
 35 36  2  0
 35 37  1  0
 28  5  1  0
 27  8  1  0
 22 17  1  0
M  CHG  3   2  -1  14   1  37  -1
M  END
>  <UniqueID>  (21) 
20

>  <SMILES>  (21) 
[NH-]C(=O)c1cc2ccc([NH2+]C3CC3)cc2n1C(=O)/C=C\C(=O)[O-]

>  <Energy>  (21) 
349.8312145189046

>  <Genealogy>  (21) 
[NH-]C(=O)c1cc2ccc([NH2+]C3CC3)cc2n1C(=O)/C=C\C(=O)[O-] (protonated)
[NH-]C(=O)c1cc2ccc([NH2+]C3CC3)cc2n1C(=O)/C=C\C(=O)[O-] (cis-trans isomerization)
[NH-]C(=O)c1cc2ccc([NH2+]C3CC3)cc2n1C(=O)/C=C\C(=O)[O-] (3D coordinates assigned)
[NH-]C(=O)c1cc2ccc([NH2+]C3CC3)cc2n1C(=O)/C=C\C(=O)[O-] (nonaromatic ring conformer: 349.8312145189046 kcal/mol)

>  <smiles>  (21) 
NC(=O)c1cc2ccc(NC3CC3)cc2n1C(=O)/C=C\C(=O)O

>  <score_type>  (21) 
oracle

>  <origin>  (21) 
adg

>  <m_score__min__energy>  (21) 
-6.71

>  <m_primary>  (21) 
energy

$$$$
22:0
     RDKit          3D

 41 42  0  0  0  0  0  0  0  0999 V2000
  144.1910  155.9380  135.0490 C   0  0  0  0  0  0  0  0  0  0  0  0
  143.2790  156.9130  134.4480 N   0  0  0  0  0  0  0  0  0  0  0  0
  143.6960  157.6420  133.2770 C   0  0  0  0  0  0  0  0  0  0  0  0
  142.9660  157.6460  132.2490 O   0  0  0  0  0  0  0  0  0  0  0  0
  144.9370  158.3670  133.2590 N   0  0  0  0  0  0  0  0  0  0  0  0
  145.1410  159.6910  133.5070 C   0  0  0  0  0  0  0  0  0  0  0  0
  144.0870  160.7080  133.7010 C   0  0  0  0  0  0  0  0  0  0  0  0
  142.7260  160.4230  133.3870 N   0  0  0  0  0  0  0  0  0  0  0  0
  144.3970  161.8570  134.1160 O   0  0  0  0  0  0  0  0  0  0  0  0
  146.5030  159.9870  133.4850 C   0  0  0  0  0  0  0  0  0  0  0  0
  147.1310  158.7950  133.2020 C   0  0  0  0  0  0  0  0  0  0  0  0
  148.4860  158.5020  133.0770 C   0  0  0  0  0  0  0  0  0  0  0  0
  148.8490  157.1700  132.8120 C   0  0  0  0  0  0  0  0  0  0  0  0
  147.8600  156.1650  132.6840 C   0  0  0  0  0  0  0  0  0  0  0  0
  148.2420  154.8120  132.4250 N   0  0  0  0  0  0  0  0  0  0  0  0
  146.4950  156.4980  132.8170 C   0  0  0  0  0  0  0  0  0  0  0  0
  146.1620  157.8350  133.0650 C   0  0  0  0  0  0  0  0  0  0  0  0
  142.0380  157.2100  135.1180 C   0  0  0  0  0  0  0  0  0  0  0  0
  141.6750  156.4630  136.0700 O   0  0  0  0  0  0  0  0  0  0  0  0
  141.2110  158.3330  134.6970 N   0  0  2  0  0  0  0  0  0  0  0  0
  141.1450  159.3580  135.7560 C   0  0  0  0  0  0  0  0  0  0  0  0
  139.8550  157.9350  134.2360 C   0  0  0  0  0  0  0  0  0  0  0  0
  139.5070  158.4410  132.8590 C   0  0  0  0  0  0  0  0  0  0  0  0
  138.3540  158.2540  132.3880 O   0  0  0  0  0  0  0  0  0  0  0  0
  140.4510  159.1280  132.1060 O   0  0  0  0  0  0  0  0  0  0  0  0
  144.1286  156.0047  136.1452 H   0  0  0  0  0  0  0  0  0  0  0  0
  143.9089  154.9248  134.7267 H   0  0  0  0  0  0  0  0  0  0  0  0
  145.2207  156.1519  134.7267 H   0  0  0  0  0  0  0  0  0  0  0  0
  142.4810  159.7300  132.6460 H   0  0  0  0  0  0  0  0  0  0  0  0
  146.9756  160.9652  133.6572 H   0  0  0  0  0  0  0  0  0  0  0  0
  149.2485  159.2878  133.1822 H   0  0  0  0  0  0  0  0  0  0  0  0
  149.9113  156.9061  132.7031 H   0  0  0  0  0  0  0  0  0  0  0  0
  148.6980  154.2340  133.1660 H   0  0  0  0  0  0  0  0  0  0  0  0
  148.0720  154.3790  131.4910 H   0  0  0  0  0  0  0  0  0  0  0  0
  145.7142  155.7282  132.7282 H   0  0  0  0  0  0  0  0  0  0  0  0
  141.6750  158.7710  133.8700 H   0  0  0  0  0  0  0  0  0  0  0  0
  141.1764  158.8698  136.7412 H   0  0  0  0  0  0  0  0  0  0  0  0
  142.0010  160.0419  135.6582 H   0  0  0  0  0  0  0  0  0  0  0  0
  140.2084  159.9265  135.6582 H   0  0  0  0  0  0  0  0  0  0  0  0
  139.8009  156.8364  134.2256 H   0  0  0  0  0  0  0  0  0  0  0  0
  139.1344  158.3857  134.9343 H   0  0  0  0  0  0  0  0  0  0  0  0
  1  2  1  0
  2  3  1  0
  3  4  2  0
  3  5  1  0
  5  6  1  0
  6  7  1  0
  7  8  1  0
  7  9  2  0
  6 10  2  0
 10 11  1  0
 11 12  2  0
 12 13  1  0
 13 14  2  0
 14 15  1  0
 14 16  1  0
 16 17  2  0
  2 18  1  0
 18 19  2  0
 18 20  1  0
 20 21  1  0
 20 22  1  0
 22 23  1  0
 23 24  2  0
 23 25  1  0
 17  5  1  0
 17 11  1  0
  1 26  1  0
  1 27  1  0
  1 28  1  0
  8 29  1  0
 10 30  1  0
 12 31  1  0
 13 32  1  0
 15 33  1  0
 15 34  1  0
 16 35  1  0
 20 36  1  6
 21 37  1  0
 21 38  1  0
 21 39  1  0
 22 40  1  0
 22 41  1  0
M  CHG  3   8  -1  20   1  25  -1
M  END
>  <UniqueID>  (22) 
21

>  <SMILES>  (22) 
CN(C(=O)n1c(C([NH-])=O)cc2ccc(N)cc21)C(=O)[N@H+](C)CC(=O)[O-]

>  <Energy>  (22) 
88.74666675372224

>  <Genealogy>  (22) 
CN(C(=O)n1c(C([NH-])=O)cc2ccc(N)cc21)C(=O)[NH+](C)CC(=O)[O-] (protonated)
CN(C(=O)n1c(C([NH-])=O)cc2ccc(N)cc21)C(=O)[N@H+](C)CC(=O)[O-] (chirality)
CN(C(=O)n1c(C([NH-])=O)cc2ccc(N)cc21)C(=O)[N@H+](C)CC(=O)[O-] (3D coordinates assigned)
CN(C(=O)n1c(C([NH-])=O)cc2ccc(N)cc21)C(=O)[N@H+](C)CC(=O)[O-] (optimized conformer: 88.74666675372224 kcal/mol)

>  <smiles>  (22) 
CN(CC(=O)O)C(=O)N(C)C(=O)n1c(C(N)=O)cc2ccc(N)cc21

>  <score_type>  (22) 
oracle

>  <origin>  (22) 
adg

>  <m_score__min__energy>  (22) 
-5.3700000000000001

>  <m_primary>  (22) 
energy

$$$$
23:0
     RDKit          3D

 39 40  0  0  0  0  0  0  0  0999 V2000
  139.5520  158.1200  135.8910 C   0  0  0  0  0  0  0  0  0  0  0  0
  141.0110  158.0160  135.8100 N   0  0  0  0  0  0  0  0  0  0  0  0
  141.7560  157.1660  136.7410 C   0  0  0  0  0  0  0  0  0  0  0  0
  141.7270  158.7460  134.7990 C   0  0  0  0  0  0  0  0  0  0  0  0
  141.0940  159.4590  133.9730 O   0  0  0  0  0  0  0  0  0  0  0  0
  143.1260  158.6620  134.7470 O   0  0  0  0  0  0  0  0  0  0  0  0
  143.8800  158.4610  133.5840 C   0  0  0  0  0  0  0  0  0  0  0  0
  143.4100  157.8060  132.6140 O   0  0  0  0  0  0  0  0  0  0  0  0
  145.2180  158.9820  133.5090 N   0  0  0  0  0  0  0  0  0  0  0  0
  145.6180  160.2810  133.6240 C   0  0  0  0  0  0  0  0  0  0  0  0
  144.7680  161.4210  134.0250 C   0  0  0  0  0  0  0  0  0  0  0  0
  143.3660  161.4170  133.7700 N   0  0  0  0  0  0  0  0  0  0  0  0
  145.2790  162.3910  134.6470 O   0  0  0  0  0  0  0  0  0  0  0  0
  146.9870  160.3920  133.3920 C   0  0  0  0  0  0  0  0  0  0  0  0
  147.4200  159.1110  133.1410 C   0  0  0  0  0  0  0  0  0  0  0  0
  148.6940  158.6420  132.8380 C   0  0  0  0  0  0  0  0  0  0  0  0
  148.8490  157.2670  132.5980 C   0  0  0  0  0  0  0  0  0  0  0  0
  147.7390  156.3870  132.6570 C   0  0  0  0  0  0  0  0  0  0  0  0
  147.9430  154.9850  132.3960 N   0  0  0  0  0  0  0  0  0  0  0  0
  149.2220  154.3070  132.6190 C   0  0  0  0  0  0  0  0  0  0  0  0
  149.0590  152.8230  132.5120 C   0  0  0  0  0  0  0  0  0  0  0  0
  150.0580  152.0660  132.6360 O   0  0  0  0  0  0  0  0  0  0  0  0
  147.8140  152.2790  132.2240 O   0  0  0  0  0  0  0  0  0  0  0  0
  146.4560  156.9050  132.9650 C   0  0  0  0  0  0  0  0  0  0  0  0
  146.3340  158.2780  133.2180 C   0  0  0  0  0  0  0  0  0  0  0  0
  139.2440  158.1419  136.9468 H   0  0  0  0  0  0  0  0  0  0  0  0
  139.2221  159.0439  135.3935 H   0  0  0  0  0  0  0  0  0  0  0  0
  139.0944  157.2522  135.3935 H   0  0  0  0  0  0  0  0  0  0  0  0
  141.5079  157.4490  137.7746 H   0  0  0  0  0  0  0  0  0  0  0  0
  141.4844  156.1132  136.5739 H   0  0  0  0  0  0  0  0  0  0  0  0
  142.8353  157.2972  136.5739 H   0  0  0  0  0  0  0  0  0  0  0  0
  142.8430  160.5200  133.6570 H   0  0  0  0  0  0  0  0  0  0  0  0
  147.5933  161.3097  133.4065 H   0  0  0  0  0  0  0  0  0  0  0  0
  149.5534  159.3268  132.7879 H   0  0  0  0  0  0  0  0  0  0  0  0
  149.8459  156.8671  132.3609 H   0  0  0  0  0  0  0  0  0  0  0  0
  147.1410  154.4350  132.0090 H   0  0  0  0  0  0  0  0  0  0  0  0
  149.9470  154.6461  131.8644 H   0  0  0  0  0  0  0  0  0  0  0  0
  149.5809  154.5517  133.6296 H   0  0  0  0  0  0  0  0  0  0  0  0
  145.5769  156.2449  133.0045 H   0  0  0  0  0  0  0  0  0  0  0  0
  1  2  1  0
  2  3  1  0
  2  4  1  0
  4  5  2  0
  4  6  1  0
  6  7  1  0
  7  8  2  0
  7  9  1  0
  9 10  1  0
 10 11  1  0
 11 12  1  0
 11 13  2  0
 10 14  2  0
 14 15  1  0
 15 16  2  0
 16 17  1  0
 17 18  2  0
 18 19  1  0
 19 20  1  0
 20 21  1  0
 21 22  2  0
 21 23  1  0
 18 24  1  0
 24 25  2  0
 25  9  1  0
 25 15  1  0
  1 26  1  0
  1 27  1  0
  1 28  1  0
  3 29  1  0
  3 30  1  0
  3 31  1  0
 12 32  1  0
 14 33  1  0
 16 34  1  0
 17 35  1  0
 19 36  1  0
 20 37  1  0
 20 38  1  0
 24 39  1  0
M  CHG  2  12  -1  23  -1
M  END
>  <UniqueID>  (23) 
22

>  <SMILES>  (23) 
CN(C)C(=O)OC(=O)n1c(C([NH-])=O)cc2ccc(NCC(=O)[O-])cc21

>  <Energy>  (23) 
73.80366759773894

>  <Genealogy>  (23) 
CN(C)C(=O)OC(=O)n1c(C([NH-])=O)cc2ccc(NCC(=O)[O-])cc21 (protonated)
CN(C)C(=O)OC(=O)n1c(C([NH-])=O)cc2ccc(NCC(=O)[O-])cc21 (3D coordinates assigned)
CN(C)C(=O)OC(=O)n1c(C([NH-])=O)cc2ccc(NCC(=O)[O-])cc21 (optimized conformer: 73.80366759773894 kcal/mol)

>  <smiles>  (23) 
CN(C)C(=O)OC(=O)n1c(C(N)=O)cc2ccc(NCC(=O)O)cc21

>  <score_type>  (23) 
oracle

>  <origin>  (23) 
adg

>  <m_score__min__energy>  (23) 
-6.7800000000000002

>  <m_primary>  (23) 
energy

$$$$
24:0
     RDKit          3D

 44 45  0  0  0  0  0  0  0  0999 V2000
  138.7490  160.8600  131.1150 C   0  0  0  0  0  0  0  0  0  0  0  0
  139.3400  159.6760  131.8200 C   0  0  0  0  0  0  0  0  0  0  0  0
  138.5430  158.5330  132.0760 C   0  0  0  0  0  0  0  0  0  0  0  0
  139.0780  157.4270  132.7580 C   0  0  0  0  0  0  0  0  0  0  0  0
  140.3970  157.5030  133.1920 C   0  0  0  0  0  0  0  0  0  0  0  0
  141.1670  156.5710  133.8500 C   0  0  0  0  0  0  0  0  0  0  0  0
  142.4070  157.1780  134.0260 C   0  0  0  0  0  0  0  0  0  0  0  0
  143.5270  156.5440  134.7500 C   0  0  0  0  0  0  0  0  0  0  0  0
  144.8850  156.8730  134.4500 N   0  0  0  0  0  0  0  0  0  0  0  0
  143.2790  155.7360  135.6840 O   0  0  0  0  0  0  0  0  0  0  0  0
  142.4120  158.4300  133.4870 N   0  0  0  0  0  0  0  0  0  0  0  0
  143.5370  159.3160  133.3670 C   0  0  0  0  0  0  0  0  0  0  0  0
  143.5130  160.4490  133.9220 O   0  0  0  0  0  0  0  0  0  0  0  0
  144.6580  158.9150  132.6330 O   0  0  0  0  0  0  0  0  0  0  0  0
  145.8890  159.6270  132.6500 C   0  0  0  0  0  0  0  0  0  0  0  0
  146.7210  159.1130  133.6850 O   0  0  0  0  0  0  0  0  0  0  0  0
  148.1150  159.0690  133.5910 C   0  0  0  0  0  0  0  0  0  0  0  0
  148.8250  159.6940  134.4270 O   0  0  0  0  0  0  0  0  0  0  0  0
  148.7330  158.3070  132.5390 N   0  0  0  0  0  0  0  0  0  0  0  0
  149.4020  159.0170  131.4460 C   0  0  0  0  0  0  0  0  0  0  0  0
  148.7630  156.8380  132.5790 C   0  0  0  0  0  0  0  0  0  0  0  0
  147.5590  156.2930  133.3480 C   0  0  0  0  0  0  0  0  0  0  0  0
  146.3980  156.4150  132.5740 O   0  0  0  0  0  0  0  0  0  0  0  0
  141.1720  158.6170  132.9820 C   0  0  0  0  0  0  0  0  0  0  0  0
  140.6720  159.7240  132.2870 C   0  0  0  0  0  0  0  0  0  0  0  0
  138.3867  161.5858  131.8579 H   0  0  0  0  0  0  0  0  0  0  0  0
  139.5170  161.3325  130.4850 H   0  0  0  0  0  0  0  0  0  0  0  0
  137.9098  160.5303  130.4850 H   0  0  0  0  0  0  0  0  0  0  0  0
  137.4964  158.5112  131.7380 H   0  0  0  0  0  0  0  0  0  0  0  0
  138.4717  156.5280  132.9430 H   0  0  0  0  0  0  0  0  0  0  0  0
  140.8665  155.5620  134.1687 H   0  0  0  0  0  0  0  0  0  0  0  0
  145.1180  157.6460  133.7890 H   0  0  0  0  0  0  0  0  0  0  0  0
  145.6650  156.3940  134.9520 H   0  0  0  0  0  0  0  0  0  0  0  0
  146.3946  159.5082  131.6803 H   0  0  0  0  0  0  0  0  0  0  0  0
  145.6928  160.6937  132.8333 H   0  0  0  0  0  0  0  0  0  0  0  0
  150.1000  159.7578  131.8630 H   0  0  0  0  0  0  0  0  0  0  0  0
  149.9578  158.2972  130.8272 H   0  0  0  0  0  0  0  0  0  0  0  0
  148.6504  159.5291  130.8272 H   0  0  0  0  0  0  0  0  0  0  0  0
  148.7409  156.4484  131.5506 H   0  0  0  0  0  0  0  0  0  0  0  0
  149.6831  156.5171  133.0894 H   0  0  0  0  0  0  0  0  0  0  0  0
  147.7285  155.2323  133.5850 H   0  0  0  0  0  0  0  0  0  0  0  0
  147.4345  156.8688  134.2769 H   0  0  0  0  0  0  0  0  0  0  0  0
  146.2460  157.3900  132.4620 H   0  0  0  0  0  0  0  0  0  0  0  0
  141.3005  160.6090  132.1090 H   0  0  0  0  0  0  0  0  0  0  0  0
  1  2  1  0
  2  3  2  0
  3  4  1  0
  4  5  2  0
  5  6  1  0
  6  7  2  0
  7  8  1  0
  8  9  1  0
  8 10  2  0
  7 11  1  0
 11 12  1  0
 12 13  2  0
 12 14  1  0
 14 15  1  0
 15 16  1  0
 16 17  1  0
 17 18  2  0
 17 19  1  0
 19 20  1  0
 19 21  1  0
 21 22  1  0
 22 23  1  0
 11 24  1  0
 24 25  2  0
 25  2  1  0
 24  5  1  0
  1 26  1  0
  1 27  1  0
  1 28  1  0
  3 29  1  0
  4 30  1  0
  6 31  1  0
  9 32  1  0
  9 33  1  0
 15 34  1  0
 15 35  1  0
 20 36  1  0
 20 37  1  0
 20 38  1  0
 21 39  1  0
 21 40  1  0
 22 41  1  0
 22 42  1  0
 23 43  1  0
 25 44  1  0
M  END
>  <UniqueID>  (24) 
23

>  <SMILES>  (24) 
Cc1ccc2cc(C(N)=O)n(C(=O)OCOC(=O)N(C)CCO)c2c1

>  <Energy>  (24) 
73.30830269568217

>  <Genealogy>  (24) 
Cc1ccc2cc(C(N)=O)n(C(=O)OCOC(=O)N(C)CCO)c2c1 (3D coordinates assigned)
Cc1ccc2cc(C(N)=O)n(C(=O)OCOC(=O)N(C)CCO)c2c1 (optimized conformer: 73.30830269568217 kcal/mol)

>  <smiles>  (24) 
Cc1ccc2cc(C(N)=O)n(C(=O)OCOC(=O)N(C)CCO)c2c1

>  <score_type>  (24) 
oracle

>  <origin>  (24) 
adg

>  <m_score__min__energy>  (24) 
-5.9699999999999998

>  <m_primary>  (24) 
energy

$$$$
25:0
     RDKit          3D

 43 44  0  0  0  0  0  0  0  0999 V2000
  148.1300  154.2030  133.4960 C   0  0  0  0  0  0  0  0  0  0  0  0
  148.3960  155.0290  132.3150 N   0  0  0  0  0  0  0  0  0  0  0  0
  148.0890  156.4100  132.5930 C   0  0  0  0  0  0  0  0  0  0  0  0
  149.1070  157.3970  132.5270 C   0  0  0  0  0  0  0  0  0  0  0  0
  148.8130  158.7490  132.7740 C   0  0  0  0  0  0  0  0  0  0  0  0
  147.4990  159.0830  133.0860 C   0  0  0  0  0  0  0  0  0  0  0  0
  146.9410  160.3130  133.3480 C   0  0  0  0  0  0  0  0  0  0  0  0
  145.5910  160.0630  133.5840 C   0  0  0  0  0  0  0  0  0  0  0  0
  144.6400  161.1130  134.0060 C   0  0  0  0  0  0  0  0  0  0  0  0
  143.2360  160.9340  133.8540 N   0  0  0  0  0  0  0  0  0  0  0  0
  145.0730  162.1570  134.5630 O   0  0  0  0  0  0  0  0  0  0  0  0
  145.3180  158.7330  133.4590 N   0  0  0  0  0  0  0  0  0  0  0  0
  144.0370  158.0800  133.5330 C   0  0  0  0  0  0  0  0  0  0  0  0
  143.1930  158.2340  132.6060 O   0  0  0  0  0  0  0  0  0  0  0  0
  143.7480  157.2450  134.6160 O   0  0  0  0  0  0  0  0  0  0  0  0
  142.5150  156.5440  134.7580 C   0  0  0  0  0  0  0  0  0  0  0  0
  141.5680  157.0680  133.8540 O   0  0  0  0  0  0  0  0  0  0  0  0
  140.3660  157.3780  134.5320 C   0  0  0  0  0  0  0  0  0  0  0  0
  140.2750  158.8920  134.7630 C   0  0  2  0  0  0  0  0  0  0  0  0
  140.7470  159.5600  133.6200 O   0  0  0  0  0  0  0  0  0  0  0  0
  141.0890  159.3170  135.9980 C   0  0  0  0  0  0  0  0  0  0  0  0
  142.4600  159.3320  135.7000 O   0  0  0  0  0  0  0  0  0  0  0  0
  146.5000  158.1460  133.1590 C   0  0  0  0  0  0  0  0  0  0  0  0
  146.7610  156.7960  132.8930 C   0  0  0  0  0  0  0  0  0  0  0  0
  148.3196  154.7919  134.4056 H   0  0  0  0  0  0  0  0  0  0  0  0
  147.0805  153.8739  133.4844 H   0  0  0  0  0  0  0  0  0  0  0  0
  148.7903  153.3233  133.4844 H   0  0  0  0  0  0  0  0  0  0  0  0
  147.8140  154.6850  131.5160 H   0  0  0  0  0  0  0  0  0  0  0  0
  149.4040  154.9300  132.0490 H   0  0  0  0  0  0  0  0  0  0  0  0
  150.1371  157.1005  132.2799 H   0  0  0  0  0  0  0  0  0  0  0  0
  149.5971  159.5188  132.7223 H   0  0  0  0  0  0  0  0  0  0  0  0
  147.4522  161.2868  133.3671 H   0  0  0  0  0  0  0  0  0  0  0  0
  142.8270  159.9780  133.7750 H   0  0  0  0  0  0  0  0  0  0  0  0
  142.6737  155.4766  134.5446 H   0  0  0  0  0  0  0  0  0  0  0  0
  142.1433  156.6618  135.7866 H   0  0  0  0  0  0  0  0  0  0  0  0
  139.5093  157.0490  133.9254 H   0  0  0  0  0  0  0  0  0  0  0  0
  140.3531  156.8611  135.5029 H   0  0  0  0  0  0  0  0  0  0  0  0
  139.2240  159.1597  134.9465 H   0  0  0  0  0  0  0  0  0  0  0  0
  141.7230  159.3850  133.5670 H   0  0  0  0  0  0  0  0  0  0  0  0
  140.7750  160.3241  136.3098 H   0  0  0  0  0  0  0  0  0  0  0  0
  140.9085  158.5962  136.8091 H   0  0  0  0  0  0  0  0  0  0  0  0
  142.5460  159.0620  134.7450 H   0  0  0  0  0  0  0  0  0  0  0  0
  145.9513  156.0518  132.9168 H   0  0  0  0  0  0  0  0  0  0  0  0
  1  2  1  0
  2  3  1  0
  3  4  2  0
  4  5  1  0
  5  6  2  0
  6  7  1  0
  7  8  2  0
  8  9  1  0
  9 10  1  0
  9 11  2  0
  8 12  1  0
 12 13  1  0
 13 14  2  0
 13 15  1  0
 15 16  1  0
 16 17  1  0
 17 18  1  0
 18 19  1  0
 19 20  1  0
 19 21  1  0
 21 22  1  0
 12 23  1  0
 23 24  2  0
 24  3  1  0
 23  6  1  0
  1 25  1  0
  1 26  1  0
  1 27  1  0
  2 28  1  0
  2 29  1  0
  4 30  1  0
  5 31  1  0
  7 32  1  0
 10 33  1  0
 16 34  1  0
 16 35  1  0
 18 36  1  0
 18 37  1  0
 19 38  1  1
 20 39  1  0
 21 40  1  0
 21 41  1  0
 22 42  1  0
 24 43  1  0
M  CHG  2   2   1  10  -1
M  END
>  <UniqueID>  (25) 
24

>  <SMILES>  (25) 
C[NH2+]c1ccc2cc(C([NH-])=O)n(C(=O)OCOC[C@H](O)CO)c2c1

>  <Energy>  (25) 
78.49486945547126

>  <Genealogy>  (25) 
C[NH2+]c1ccc2cc(C([NH-])=O)n(C(=O)OCOC[C@H](O)CO)c2c1 (protonated)
C[NH2+]c1ccc2cc(C([NH-])=O)n(C(=O)OCOC[C@H](O)CO)c2c1 (3D coordinates assigned)
C[NH2+]c1ccc2cc(C([NH-])=O)n(C(=O)OCOC[C@H](O)CO)c2c1 (optimized conformer: 78.49486945547126 kcal/mol)

>  <smiles>  (25) 
CNc1ccc2cc(C(N)=O)n(C(=O)OCOC[C@H](O)CO)c2c1

>  <score_type>  (25) 
oracle

>  <origin>  (25) 
adg

>  <m_score__min__energy>  (25) 
-4.4800000000000004

>  <m_primary>  (25) 
energy

$$$$
26:0
     RDKit          3D

 48 49  0  0  0  0  0  0  0  0999 V2000
  148.8150  154.2810  132.6710 C   0  0  0  0  0  0  0  0  0  0  0  0
  148.3060  155.3620  132.8340 C   0  0  0  0  0  0  0  0  0  0  0  0
  147.7000  156.6530  133.0340 C   0  0  0  0  0  0  0  0  0  0  0  0
  148.5130  157.8080  133.1060 C   0  0  0  0  0  0  0  0  0  0  0  0
  147.9340  159.0740  133.2910 C   0  0  0  0  0  0  0  0  0  0  0  0
  146.5470  159.1480  133.4040 C   0  0  0  0  0  0  0  0  0  0  0  0
  145.7250  160.2450  133.5460 C   0  0  0  0  0  0  0  0  0  0  0  0
  144.4260  159.7330  133.5760 C   0  0  0  0  0  0  0  0  0  0  0  0
  143.2100  160.5560  133.7730 C   0  0  0  0  0  0  0  0  0  0  0  0
  141.9380  159.9410  133.9910 N   0  0  0  0  0  0  0  0  0  0  0  0
  143.2830  161.8140  133.7290 O   0  0  0  0  0  0  0  0  0  0  0  0
  144.4480  158.3750  133.4700 N   0  0  0  0  0  0  0  0  0  0  0  0
  143.3180  157.4900  133.4010 C   0  0  0  0  0  0  0  0  0  0  0  0
  142.4830  157.6360  132.4710 O   0  0  0  0  0  0  0  0  0  0  0  0
  143.1190  156.4380  134.4230 C   0  0  0  0  0  0  0  0  0  0  0  0
  144.0680  156.1590  135.2030 O   0  0  0  0  0  0  0  0  0  0  0  0
  141.8430  155.7130  134.5780 C   0  0  0  0  0  0  0  0  0  0  0  0
  141.3410  155.0790  133.6100 O   0  0  0  0  0  0  0  0  0  0  0  0
  141.1910  155.7380  135.8150 O   0  0  0  0  0  0  0  0  0  0  0  0
  140.9070  156.9460  136.5100 C   0  0  0  0  0  0  0  0  0  0  0  0
  140.5030  158.0150  135.5380 C   0  0  0  0  0  0  0  0  0  0  0  0
  140.5860  159.2230  135.8840 O   0  0  0  0  0  0  0  0  0  0  0  0
  140.0100  157.7040  134.2310 N   0  0  0  0  0  0  0  0  0  0  0  0
  138.7690  158.2250  133.6690 C   0  0  0  0  0  0  0  0  0  0  0  0
  138.8560  158.2580  132.1410 C   0  0  0  0  0  0  0  0  0  0  0  0
  139.7440  159.3990  131.6240 C   0  0  0  0  0  0  0  0  0  0  0  0
  139.0130  160.2580  130.7680 O   0  0  0  0  0  0  0  0  0  0  0  0
  137.6250  160.0850  130.9600 C   0  0  0  0  0  0  0  0  0  0  0  0
  145.7500  158.0320  133.3540 C   0  0  0  0  0  0  0  0  0  0  0  0
  146.2980  156.7600  133.1510 C   0  0  0  0  0  0  0  0  0  0  0  0
  149.2793  153.2949  132.5223 H   0  0  0  0  0  0  0  0  0  0  0  0
  149.6053  157.7141  133.0166 H   0  0  0  0  0  0  0  0  0  0  0  0
  148.5562  159.9795  133.3450 H   0  0  0  0  0  0  0  0  0  0  0  0
  146.0278  161.2999  133.6200 H   0  0  0  0  0  0  0  0  0  0  0  0
  141.0800  160.5300  134.0680 H   0  0  0  0  0  0  0  0  0  0  0  0
  141.8430  158.9080  134.1110 H   0  0  0  0  0  0  0  0  0  0  0  0
  140.0867  156.7723  137.2220 H   0  0  0  0  0  0  0  0  0  0  0  0
  141.8079  157.2716  137.0506 H   0  0  0  0  0  0  0  0  0  0  0  0
  137.9327  157.5778  133.9718 H   0  0  0  0  0  0  0  0  0  0  0  0
  138.6060  159.2468  134.0423 H   0  0  0  0  0  0  0  0  0  0  0  0
  139.2721  157.3017  131.7912 H   0  0  0  0  0  0  0  0  0  0  0  0
  137.8402  158.4249  131.7533 H   0  0  0  0  0  0  0  0  0  0  0  0
  140.1210  159.9784  132.4797 H   0  0  0  0  0  0  0  0  0  0  0  0
  140.5804  158.9649  131.0566 H   0  0  0  0  0  0  0  0  0  0  0  0
  137.4045  160.0575  132.0373 H   0  0  0  0  0  0  0  0  0  0  0  0
  137.0835  160.9226  130.4961 H   0  0  0  0  0  0  0  0  0  0  0  0
  137.3056  159.1401  130.4961 H   0  0  0  0  0  0  0  0  0  0  0  0
  145.6547  155.8702  133.0847 H   0  0  0  0  0  0  0  0  0  0  0  0
  1  2  3  0
  2  3  1  0
  3  4  2  0
  4  5  1  0
  5  6  2  0
  6  7  1  0
  7  8  2  0
  8  9  1  0
  9 10  1  0
  9 11  2  0
  8 12  1  0
 12 13  1  0
 13 14  2  0
 13 15  1  0
 15 16  2  0
 15 17  1  0
 17 18  2  0
 17 19  1  0
 19 20  1  0
 20 21  1  0
 21 22  2  0
 21 23  1  0
 23 24  1  0
 24 25  1  0
 25 26  1  0
 26 27  1  0
 27 28  1  0
 12 29  1  0
 29 30  2  0
 30  3  1  0
 29  6  1  0
  1 31  1  0
  4 32  1  0
  5 33  1  0
  7 34  1  0
 10 35  1  0
 10 36  1  0
 20 37  1  0
 20 38  1  0
 24 39  1  0
 24 40  1  0
 25 41  1  0
 25 42  1  0
 26 43  1  0
 26 44  1  0
 28 45  1  0
 28 46  1  0
 28 47  1  0
 30 48  1  0
M  CHG  1  23  -1
M  END
>  <UniqueID>  (26) 
25

>  <SMILES>  (26) 
C#Cc1ccc2cc(C(N)=O)n(C(=O)C(=O)C(=O)OCC(=O)[N-]CCCOC)c2c1

>  <Energy>  (26) 
78.99859307327132

>  <Genealogy>  (26) 
C#Cc1ccc2cc(C(N)=O)n(C(=O)C(=O)C(=O)OCC(=O)[N-]CCCOC)c2c1 (protonated)
C#Cc1ccc2cc(C(N)=O)n(C(=O)C(=O)C(=O)OCC(=O)[N-]CCCOC)c2c1 (3D coordinates assigned)
C#Cc1ccc2cc(C(N)=O)n(C(=O)C(=O)C(=O)OCC(=O)[N-]CCCOC)c2c1 (optimized conformer: 78.99859307327132 kcal/mol)

>  <smiles>  (26) 
C#Cc1ccc2cc(C(N)=O)n(C(=O)C(=O)C(=O)OCC(=O)NCCCOC)c2c1

>  <score_type>  (26) 
oracle

>  <origin>  (26) 
adg

>  <m_score__min__energy>  (26) 
-7.9000000000000004

>  <m_primary>  (26) 
energy

$$$$
27:0
     RDKit          3D

 57 58  0  0  0  0  0  0  0  0999 V2000
  149.6090  151.0200  134.3090 C   0  0  0  0  0  0  0  0  0  0  0  0
  149.2050  151.6410  133.0420 N   0  0  0  0  0  0  0  0  0  0  0  0
  148.7640  150.7720  131.9400 C   0  0  0  0  0  0  0  0  0  0  0  0
  149.9410  150.3780  131.0480 C   0  0  0  0  0  0  0  0  0  0  0  0
  151.1520  150.7220  131.6580 O   0  0  0  0  0  0  0  0  0  0  0  0
  149.2950  153.0810  132.9140 C   0  0  0  0  0  0  0  0  0  0  0  0
  150.2540  153.5820  132.2620 O   0  0  0  0  0  0  0  0  0  0  0  0
  148.3020  154.0020  133.5860 C   0  0  0  0  0  0  0  0  0  0  0  0
  147.9480  155.2270  132.7240 C   0  0  0  0  0  0  0  0  0  0  0  0
  148.5450  156.5260  133.2860 C   0  0  0  0  0  0  0  0  0  0  0  0
  147.5420  157.6520  133.2920 C   0  0  0  0  0  0  0  0  0  0  0  0
  147.9790  159.0000  133.3440 C   0  0  0  0  0  0  0  0  0  0  0  0
  147.0500  160.0540  133.3810 C   0  0  0  0  0  0  0  0  0  0  0  0
  145.6960  159.7300  133.3810 C   0  0  0  0  0  0  0  0  0  0  0  0
  144.5890  160.5470  133.4050 C   0  0  0  0  0  0  0  0  0  0  0  0
  143.4930  159.6860  133.4010 C   0  0  0  0  0  0  0  0  0  0  0  0
  142.0950  160.1500  133.5160 C   0  0  0  0  0  0  0  0  0  0  0  0
  141.1120  159.7630  132.5580 N   0  0  0  0  0  0  0  0  0  0  0  0
  141.7520  160.8590  134.4980 O   0  0  0  0  0  0  0  0  0  0  0  0
  143.9080  158.3870  133.3670 N   0  0  0  0  0  0  0  0  0  0  0  0
  143.1030  157.2010  133.2980 C   0  0  0  0  0  0  0  0  0  0  0  0
  142.0430  157.2040  132.6130 O   0  0  0  0  0  0  0  0  0  0  0  0
  143.5230  156.0470  133.9760 O   0  0  0  0  0  0  0  0  0  0  0  0
  143.8140  154.7720  133.3890 C   0  0  0  0  0  0  0  0  0  0  0  0
  144.3250  154.9420  131.9450 C   0  0  0  0  0  0  0  0  0  0  0  0
  144.8420  154.0060  134.2430 C   0  0  0  0  0  0  0  0  0  0  0  0
  142.5000  153.9780  133.3620 C   0  0  0  0  0  0  0  0  0  0  0  0
  145.2570  158.4310  133.3560 C   0  0  0  0  0  0  0  0  0  0  0  0
  146.1600  157.3640  133.2920 C   0  0  0  0  0  0  0  0  0  0  0  0
  149.2217  151.6153  135.1490 H   0  0  0  0  0  0  0  0  0  0  0  0
  149.2012  149.9999  134.3638 H   0  0  0  0  0  0  0  0  0  0  0  0
  150.7069  150.9794  134.3638 H   0  0  0  0  0  0  0  0  0  0  0  0
  148.3100  149.8620  132.3592 H   0  0  0  0  0  0  0  0  0  0  0  0
  148.0320  151.3227  131.3311 H   0  0  0  0  0  0  0  0  0  0  0  0
  149.9176  149.2918  130.8759 H   0  0  0  0  0  0  0  0  0  0  0  0
  149.8586  150.9143  130.0911 H   0  0  0  0  0  0  0  0  0  0  0  0
  151.1280  151.7060  131.7860 H   0  0  0  0  0  0  0  0  0  0  0  0
  147.3804  153.4371  133.7895 H   0  0  0  0  0  0  0  0  0  0  0  0
  148.7666  154.3714  134.5121 H   0  0  0  0  0  0  0  0  0  0  0  0
  148.3377  155.0691  131.7075 H   0  0  0  0  0  0  0  0  0  0  0  0
  146.8531  155.3326  132.7219 H   0  0  0  0  0  0  0  0  0  0  0  0
  148.8820  156.3450  134.3173 H   0  0  0  0  0  0  0  0  0  0  0  0
  149.3843  156.8219  132.6395 H   0  0  0  0  0  0  0  0  0  0  0  0
  149.0561  159.2230  133.3555 H   0  0  0  0  0  0  0  0  0  0  0  0
  147.3823  161.1022  133.4091 H   0  0  0  0  0  0  0  0  0  0  0  0
  144.5726  161.6467  133.4234 H   0  0  0  0  0  0  0  0  0  0  0  0
  141.3440  159.0910  131.7930 H   0  0  0  0  0  0  0  0  0  0  0  0
  145.3686  155.2892  131.9639 H   0  0  0  0  0  0  0  0  0  0  0  0
  144.2691  153.9769  131.4203 H   0  0  0  0  0  0  0  0  0  0  0  0
  143.7020  155.6813  131.4203 H   0  0  0  0  0  0  0  0  0  0  0  0
  144.6257  154.1672  135.3094 H   0  0  0  0  0  0  0  0  0  0  0  0
  144.7806  152.9317  134.0147 H   0  0  0  0  0  0  0  0  0  0  0  0
  145.8539  154.3721  134.0147 H   0  0  0  0  0  0  0  0  0  0  0  0
  142.1706  153.7790  134.3925 H   0  0  0  0  0  0  0  0  0  0  0  0
  141.7295  154.5618  132.8371 H   0  0  0  0  0  0  0  0  0  0  0  0
  142.6585  153.0244  132.8371 H   0  0  0  0  0  0  0  0  0  0  0  0
  145.8014  156.3252  133.2429 H   0  0  0  0  0  0  0  0  0  0  0  0
  1  2  1  0
  2  3  1  0
  3  4  1  0
  4  5  1  0
  2  6  1  0
  6  7  2  0
  6  8  1  0
  8  9  1  0
  9 10  1  0
 10 11  1  0
 11 12  2  0
 12 13  1  0
 13 14  2  0
 14 15  1  0
 15 16  2  0
 16 17  1  0
 17 18  1  0
 17 19  2  0
 16 20  1  0
 20 21  1  0
 21 22  2  0
 21 23  1  0
 23 24  1  0
 24 25  1  0
 24 26  1  0
 24 27  1  0
 20 28  1  0
 28 29  2  0
 29 11  1  0
 28 14  1  0
  1 30  1  0
  1 31  1  0
  1 32  1  0
  3 33  1  0
  3 34  1  0
  4 35  1  0
  4 36  1  0
  5 37  1  0
  8 38  1  0
  8 39  1  0
  9 40  1  0
  9 41  1  0
 10 42  1  0
 10 43  1  0
 12 44  1  0
 13 45  1  0
 15 46  1  0
 18 47  1  0
 25 48  1  0
 25 49  1  0
 25 50  1  0
 26 51  1  0
 26 52  1  0
 26 53  1  0
 27 54  1  0
 27 55  1  0
 27 56  1  0
 29 57  1  0
M  CHG  1  18  -1
M  END
>  <UniqueID>  (27) 
26

>  <SMILES>  (27) 
CN(CCO)C(=O)CCCc1ccc2cc(C([NH-])=O)n(C(=O)OC(C)(C)C)c2c1

>  <Energy>  (27) 
82.32101270891252

>  <Genealogy>  (27) 
CN(CCO)C(=O)CCCc1ccc2cc(C([NH-])=O)n(C(=O)OC(C)(C)C)c2c1 (protonated)
CN(CCO)C(=O)CCCc1ccc2cc(C([NH-])=O)n(C(=O)OC(C)(C)C)c2c1 (3D coordinates assigned)
CN(CCO)C(=O)CCCc1ccc2cc(C([NH-])=O)n(C(=O)OC(C)(C)C)c2c1 (optimized conformer: 82.32101270891252 kcal/mol)

>  <smiles>  (27) 
CN(CCO)C(=O)CCCc1ccc2cc(C(N)=O)n(C(=O)OC(C)(C)C)c2c1

>  <score_type>  (27) 
oracle

>  <origin>  (27) 
adg

>  <m_score__min__energy>  (27) 
-8

>  <m_primary>  (27) 
energy

$$$$
29:0
     RDKit          3D

 45 46  0  0  0  0  0  0  0  0999 V2000
  149.4980  152.3620  132.2720 C   0  0  0  0  0  0  0  0  0  0  0  0
  148.3750  153.1150  132.7130 O   0  0  0  0  0  0  0  0  0  0  0  0
  148.4920  154.4020  133.2440 C   0  0  0  0  0  0  0  0  0  0  0  0
  149.1150  155.3010  132.6120 O   0  0  0  0  0  0  0  0  0  0  0  0
  147.9100  154.6780  134.4840 O   0  0  0  0  0  0  0  0  0  0  0  0
  146.5060  154.6120  134.7100 C   0  0  0  0  0  0  0  0  0  0  0  0
  145.9710  155.9290  134.7860 O   0  0  0  0  0  0  0  0  0  0  0  0
  145.4730  156.6110  133.6720 C   0  0  0  0  0  0  0  0  0  0  0  0
  145.1630  155.9760  132.6270 O   0  0  0  0  0  0  0  0  0  0  0  0
  145.3000  158.0370  133.7250 N   0  0  0  0  0  0  0  0  0  0  0  0
  146.2700  158.9950  133.7140 C   0  0  0  0  0  0  0  0  0  0  0  0
  147.7270  158.7440  133.7950 C   0  0  0  0  0  0  0  0  0  0  0  0
  148.2490  157.4240  133.6370 N   0  0  0  0  0  0  0  0  0  0  0  0
  148.5250  159.7020  133.9730 O   0  0  0  0  0  0  0  0  0  0  0  0
  145.6990  160.2650  133.7160 C   0  0  0  0  0  0  0  0  0  0  0  0
  144.3400  160.0550  133.7300 C   0  0  0  0  0  0  0  0  0  0  0  0
  143.2960  160.9710  133.7300 C   0  0  0  0  0  0  0  0  0  0  0  0
  141.9820  160.4760  133.7220 C   0  0  0  0  0  0  0  0  0  0  0  0
  141.7240  159.0760  133.7070 C   0  0  0  0  0  0  0  0  0  0  0  0
  140.3640  158.5680  133.6840 N   0  0  0  0  0  0  0  0  0  0  0  0
  139.6720  158.2490  134.9400 C   0  0  0  0  0  0  0  0  0  0  0  0
  139.6530  158.3270  132.4190 C   0  0  0  0  0  0  0  0  0  0  0  0
  138.5540  159.3720  132.2060 C   0  0  0  0  0  0  0  0  0  0  0  0
  139.1050  160.6610  132.2140 O   0  0  0  0  0  0  0  0  0  0  0  0
  142.8250  158.1810  133.7050 C   0  0  0  0  0  0  0  0  0  0  0  0
  144.1230  158.7040  133.7350 C   0  0  0  0  0  0  0  0  0  0  0  0
  150.0546  151.9888  133.1443 H   0  0  0  0  0  0  0  0  0  0  0  0
  149.1538  151.5114  131.6653 H   0  0  0  0  0  0  0  0  0  0  0  0
  150.1542  153.0034  131.6653 H   0  0  0  0  0  0  0  0  0  0  0  0
  146.0271  154.0698  133.8813 H   0  0  0  0  0  0  0  0  0  0  0  0
  146.3132  154.0848  135.6560 H   0  0  0  0  0  0  0  0  0  0  0  0
  149.2800  157.2620  133.6580 H   0  0  0  0  0  0  0  0  0  0  0  0
  147.6170  156.5980  133.5420 H   0  0  0  0  0  0  0  0  0  0  0  0
  146.2239  161.2317  133.7081 H   0  0  0  0  0  0  0  0  0  0  0  0
  143.4929  162.0532  133.7361 H   0  0  0  0  0  0  0  0  0  0  0  0
  141.1381  161.1816  133.7274 H   0  0  0  0  0  0  0  0  0  0  0  0
  140.3045  158.5406  135.7914 H   0  0  0  0  0  0  0  0  0  0  0  0
  138.7207  158.7994  134.9845 H   0  0  0  0  0  0  0  0  0  0  0  0
  139.4727  157.1681  134.9845 H   0  0  0  0  0  0  0  0  0  0  0  0
  140.3696  158.3822  131.5863 H   0  0  0  0  0  0  0  0  0  0  0  0
  139.1892  157.3304  132.4592 H   0  0  0  0  0  0  0  0  0  0  0  0
  138.0640  159.1921  131.2377 H   0  0  0  0  0  0  0  0  0  0  0  0
  137.8181  159.2906  133.0195 H   0  0  0  0  0  0  0  0  0  0  0  0
  138.3400  161.2950  132.2090 H   0  0  0  0  0  0  0  0  0  0  0  0
  142.6611  157.0936  133.6803 H   0  0  0  0  0  0  0  0  0  0  0  0
  1  2  1  0
  2  3  1  0
  3  4  2  0
  3  5  1  0
  5  6  1  0
  6  7  1  0
  7  8  1  0
  8  9  2  0
  8 10  1  0
 10 11  1  0
 11 12  1  0
 12 13  1  0
 12 14  2  0
 11 15  2  0
 15 16  1  0
 16 17  2  0
 17 18  1  0
 18 19  2  0
 19 20  1  0
 20 21  1  0
 20 22  1  0
 22 23  1  0
 23 24  1  0
 19 25  1  0
 25 26  2  0
 26 10  1  0
 26 16  1  0
  1 27  1  0
  1 28  1  0
  1 29  1  0
  6 30  1  0
  6 31  1  0
 13 32  1  0
 13 33  1  0
 15 34  1  0
 17 35  1  0
 18 36  1  0
 21 37  1  0
 21 38  1  0
 21 39  1  0
 22 40  1  0
 22 41  1  0
 23 42  1  0
 23 43  1  0
 24 44  1  0
 25 45  1  0
M  END
>  <UniqueID>  (28) 
27

>  <SMILES>  (28) 
COC(=O)OCOC(=O)n1c(C(N)=O)cc2ccc(N(C)CCO)cc21

>  <Energy>  (28) 
77.55698580874704

>  <Genealogy>  (28) 
COC(=O)OCOC(=O)n1c(C(N)=O)cc2ccc(N(C)CCO)cc21 (3D coordinates assigned)
COC(=O)OCOC(=O)n1c(C(N)=O)cc2ccc(N(C)CCO)cc21 (optimized conformer: 77.55698580874704 kcal/mol)

>  <smiles>  (28) 
COC(=O)OCOC(=O)n1c(C(N)=O)cc2ccc(N(C)CCO)cc21

>  <score_type>  (28) 
oracle

>  <origin>  (28) 
adg

>  <m_score__min__energy>  (28) 
-5.7599999999999998

>  <m_primary>  (28) 
energy

$$$$
30:0
     RDKit          3D

 48 49  0  0  0  0  0  0  0  0999 V2000
  144.4230  153.3190  132.6440 C   0  0  0  0  0  0  0  0  0  0  0  0
  145.1040  154.5860  133.2010 C   0  0  0  0  0  0  0  0  0  0  0  0
  145.1120  154.5640  134.7420 C   0  0  0  0  0  0  0  0  0  0  0  0
  146.5550  154.6320  132.6980 C   0  0  0  0  0  0  0  0  0  0  0  0
  144.4490  155.7680  132.7150 O   0  0  0  0  0  0  0  0  0  0  0  0
  143.3600  156.4210  133.3160 C   0  0  0  0  0  0  0  0  0  0  0  0
  142.3340  155.7810  133.6740 O   0  0  0  0  0  0  0  0  0  0  0  0
  143.4330  157.8350  133.5570 N   0  0  0  0  0  0  0  0  0  0  0  0
  142.4020  158.7240  133.6240 C   0  0  0  0  0  0  0  0  0  0  0  0
  140.9640  158.3800  133.6390 C   0  0  0  0  0  0  0  0  0  0  0  0
  140.4210  157.4570  132.6980 N   0  0  0  0  0  0  0  0  0  0  0  0
  140.2150  158.8750  134.5260 O   0  0  0  0  0  0  0  0  0  0  0  0
  142.8880  160.0260  133.7330 C   0  0  0  0  0  0  0  0  0  0  0  0
  144.2590  159.9040  133.7320 C   0  0  0  0  0  0  0  0  0  0  0  0
  145.2450  160.8840  133.7610 C   0  0  0  0  0  0  0  0  0  0  0  0
  146.5840  160.4720  133.6670 C   0  0  0  0  0  0  0  0  0  0  0  0
  146.9200  159.0980  133.5550 C   0  0  0  0  0  0  0  0  0  0  0  0
  148.3630  158.6510  133.3900 C   0  0  1  0  0  0  0  0  0  0  0  0
  148.4270  157.2210  132.8040 C   0  0  0  0  0  0  0  0  0  0  0  0
  149.6840  156.9740  132.2320 O   0  0  0  0  0  0  0  0  0  0  0  0
  149.2250  159.7050  132.6280 C   0  0  0  0  0  0  0  0  0  0  0  0
  148.8500  159.9080  131.1820 C   0  0  0  0  0  0  0  0  0  0  0  0
  148.3190  161.1540  130.7510 N   0  0  0  0  0  0  0  0  0  0  0  0
  149.0550  158.9880  130.3350 O   0  0  0  0  0  0  0  0  0  0  0  0
  145.8860  158.1370  133.5240 C   0  0  0  0  0  0  0  0  0  0  0  0
  144.5610  158.5730  133.6270 C   0  0  0  0  0  0  0  0  0  0  0  0
  144.0838  152.6880  133.4787 H   0  0  0  0  0  0  0  0  0  0  0  0
  143.5587  153.6080  132.0280 H   0  0  0  0  0  0  0  0  0  0  0  0
  145.1409  152.7575  132.0280 H   0  0  0  0  0  0  0  0  0  0  0  0
  144.7597  155.5334  135.1244 H   0  0  0  0  0  0  0  0  0  0  0  0
  144.4468  153.7647  135.1008 H   0  0  0  0  0  0  0  0  0  0  0  0
  146.1351  154.3782  135.1008 H   0  0  0  0  0  0  0  0  0  0  0  0
  147.2406  154.6537  133.5579 H   0  0  0  0  0  0  0  0  0  0  0  0
  146.7601  153.7399  132.0880 H   0  0  0  0  0  0  0  0  0  0  0  0
  146.7031  155.5353  132.0880 H   0  0  0  0  0  0  0  0  0  0  0  0
  141.0210  156.7310  132.2490 H   0  0  0  0  0  0  0  0  0  0  0  0
  142.3008  160.9534  133.8046 H   0  0  0  0  0  0  0  0  0  0  0  0
  144.9842  161.9485  133.8546 H   0  0  0  0  0  0  0  0  0  0  0  0
  147.3848  161.2260  133.6804 H   0  0  0  0  0  0  0  0  0  0  0  0
  148.8294  158.5918  134.3845 H   0  0  0  0  0  0  0  0  0  0  0  0
  148.2474  156.4929  133.6087 H   0  0  0  0  0  0  0  0  0  0  0  0
  147.6585  157.1248  132.0229 H   0  0  0  0  0  0  0  0  0  0  0  0
  149.5900  157.1080  131.2530 H   0  0  0  0  0  0  0  0  0  0  0  0
  149.1215  160.6697  133.1462 H   0  0  0  0  0  0  0  0  0  0  0  0
  150.2548  159.3183  132.6276 H   0  0  0  0  0  0  0  0  0  0  0  0
  148.1020  161.9110  131.4430 H   0  0  0  0  0  0  0  0  0  0  0  0
  148.1020  161.3140  129.7410 H   0  0  0  0  0  0  0  0  0  0  0  0
  146.1179  157.0667  133.4209 H   0  0  0  0  0  0  0  0  0  0  0  0
  1  2  1  0
  2  3  1  0
  2  4  1  0
  2  5  1  0
  5  6  1  0
  6  7  2  0
  6  8  1  0
  8  9  1  0
  9 10  1  0
 10 11  1  0
 10 12  2  0
  9 13  2  0
 13 14  1  0
 14 15  2  0
 15 16  1  0
 16 17  2  0
 17 18  1  0
 18 19  1  0
 19 20  1  0
 18 21  1  0
 21 22  1  0
 22 23  1  0
 22 24  2  0
 17 25  1  0
 25 26  2  0
 26  8  1  0
 26 14  1  0
  1 27  1  0
  1 28  1  0
  1 29  1  0
  3 30  1  0
  3 31  1  0
  3 32  1  0
  4 33  1  0
  4 34  1  0
  4 35  1  0
 11 36  1  0
 13 37  1  0
 15 38  1  0
 16 39  1  0
 18 40  1  1
 19 41  1  0
 19 42  1  0
 20 43  1  0
 21 44  1  0
 21 45  1  0
 23 46  1  0
 23 47  1  0
 25 48  1  0
M  CHG  1  11  -1
M  END
>  <UniqueID>  (29) 
28

>  <SMILES>  (29) 
CC(C)(C)OC(=O)n1c(C([NH-])=O)cc2ccc([C@@H](CO)CC(N)=O)cc21

>  <Energy>  (29) 
83.73440405534363

>  <Genealogy>  (29) 
CC(C)(C)OC(=O)n1c(C([NH-])=O)cc2ccc([C@@H](CO)CC(N)=O)cc21 (protonated)
CC(C)(C)OC(=O)n1c(C([NH-])=O)cc2ccc([C@@H](CO)CC(N)=O)cc21 (3D coordinates assigned)
CC(C)(C)OC(=O)n1c(C([NH-])=O)cc2ccc([C@@H](CO)CC(N)=O)cc21 (optimized conformer: 83.73440405534363 kcal/mol)

>  <smiles>  (29) 
CC(C)(C)OC(=O)n1c(C(N)=O)cc2ccc([C@@H](CO)CC(N)=O)cc21

>  <score_type>  (29) 
oracle

>  <origin>  (29) 
adg

>  <m_score__min__energy>  (29) 
-7.5999999999999996

>  <m_primary>  (29) 
energy

$$$$
31:0
     RDKit          3D

 39 40  0  0  0  0  0  0  0  0999 V2000
  149.9520  158.3170  131.8620 C   0  0  0  0  0  0  0  0  0  0  0  0
  148.9130  157.5490  132.5500 N   0  0  0  0  0  0  0  0  0  0  0  0
  147.8110  158.4090  132.9060 C   0  0  0  0  0  0  0  0  0  0  0  0
  148.0410  159.7740  133.2180 C   0  0  0  0  0  0  0  0  0  0  0  0
  146.9720  160.6270  133.5360 C   0  0  0  0  0  0  0  0  0  0  0  0
  145.6870  160.0930  133.5340 C   0  0  0  0  0  0  0  0  0  0  0  0
  144.4730  160.7010  133.7640 C   0  0  0  0  0  0  0  0  0  0  0  0
  143.5200  159.6990  133.5940 C   0  0  0  0  0  0  0  0  0  0  0  0
  142.0720  159.9030  133.8080 C   0  0  0  0  0  0  0  0  0  0  0  0
  141.1630  159.7390  132.7220 N   0  0  0  0  0  0  0  0  0  0  0  0
  141.6310  160.2530  134.9340 O   0  0  0  0  0  0  0  0  0  0  0  0
  144.1200  158.5200  133.2730 N   0  0  0  0  0  0  0  0  0  0  0  0
  143.4890  157.2810  132.9160 C   0  0  0  0  0  0  0  0  0  0  0  0
  142.3910  157.2910  132.2950 O   0  0  0  0  0  0  0  0  0  0  0  0
  144.0690  156.0690  133.3090 O   0  0  0  0  0  0  0  0  0  0  0  0
  144.6400  155.8650  134.5990 C   0  0  0  0  0  0  0  0  0  0  0  0
  145.3170  154.5300  134.6610 C   0  0  0  0  0  0  0  0  0  0  0  0
  145.2300  153.8310  135.7060 O   0  0  0  0  0  0  0  0  0  0  0  0
  146.0130  154.0630  133.5430 O   0  0  0  0  0  0  0  0  0  0  0  0
  147.3890  153.6980  133.5870 C   0  0  0  0  0  0  0  0  0  0  0  0
  148.2320  154.9300  133.5370 C   0  0  0  0  0  0  0  0  0  0  0  0
  149.0920  155.0730  132.6270 O   0  0  0  0  0  0  0  0  0  0  0  0
  148.0430  155.9410  134.4700 O   0  0  0  0  0  0  0  0  0  0  0  0
  145.4460  158.7760  133.2390 C   0  0  0  0  0  0  0  0  0  0  0  0
  146.4890  157.9070  132.9010 C   0  0  0  0  0  0  0  0  0  0  0  0
  150.6042  158.7991  132.6051 H   0  0  0  0  0  0  0  0  0  0  0  0
  150.5501  157.6423  131.2320 H   0  0  0  0  0  0  0  0  0  0  0  0
  149.4824  159.0868  131.2320 H   0  0  0  0  0  0  0  0  0  0  0  0
  148.5780  156.7820  131.9220 H   0  0  0  0  0  0  0  0  0  0  0  0
  149.3210  157.1100  133.4080 H   0  0  0  0  0  0  0  0  0  0  0  0
  149.0679  160.1682  133.2107 H   0  0  0  0  0  0  0  0  0  0  0  0
  147.1451  161.6857  133.7794 H   0  0  0  0  0  0  0  0  0  0  0  0
  144.2938  161.7541  134.0263 H   0  0  0  0  0  0  0  0  0  0  0  0
  141.4380  159.2050  131.8680 H   0  0  0  0  0  0  0  0  0  0  0  0
  145.3778  156.6560  134.7988 H   0  0  0  0  0  0  0  0  0  0  0  0
  143.8407  155.8970  135.3540 H   0  0  0  0  0  0  0  0  0  0  0  0
  147.5938  153.1510  134.5191 H   0  0  0  0  0  0  0  0  0  0  0  0
  147.6261  153.0559  132.7259 H   0  0  0  0  0  0  0  0  0  0  0  0
  146.2856  156.8585  132.6377 H   0  0  0  0  0  0  0  0  0  0  0  0
  1  2  1  0
  2  3  1  0
  3  4  2  0
  4  5  1  0
  5  6  2  0
  6  7  1  0
  7  8  2  0
  8  9  1  0
  9 10  1  0
  9 11  2  0
  8 12  1  0
 12 13  1  0
 13 14  2  0
 13 15  1  0
 15 16  1  0
 16 17  1  0
 17 18  2  0
 17 19  1  0
 19 20  1  0
 20 21  1  0
 21 22  2  0
 21 23  1  0
 12 24  1  0
 24 25  2  0
 25  3  1  0
 24  6  1  0
  1 26  1  0
  1 27  1  0
  1 28  1  0
  2 29  1  0
  2 30  1  0
  4 31  1  0
  5 32  1  0
  7 33  1  0
 10 34  1  0
 16 35  1  0
 16 36  1  0
 20 37  1  0
 20 38  1  0
 25 39  1  0
M  CHG  3   2   1  10  -1  23  -1
M  END
>  <UniqueID>  (30) 
29

>  <SMILES>  (30) 
C[NH2+]c1ccc2cc(C([NH-])=O)n(C(=O)OCC(=O)OCC(=O)[O-])c2c1

>  <Energy>  (30) 
71.1684806076996

>  <Genealogy>  (30) 
C[NH2+]c1ccc2cc(C([NH-])=O)n(C(=O)OCC(=O)OCC(=O)[O-])c2c1 (protonated)
C[NH2+]c1ccc2cc(C([NH-])=O)n(C(=O)OCC(=O)OCC(=O)[O-])c2c1 (3D coordinates assigned)
C[NH2+]c1ccc2cc(C([NH-])=O)n(C(=O)OCC(=O)OCC(=O)[O-])c2c1 (optimized conformer: 71.1684806076996 kcal/mol)

>  <smiles>  (30) 
CNc1ccc2cc(C(N)=O)n(C(=O)OCC(=O)OCC(=O)O)c2c1

>  <score_type>  (30) 
oracle

>  <origin>  (30) 
adg

>  <m_score__min__energy>  (30) 
-4.8200000000000003

>  <m_primary>  (30) 
energy

$$$$
32:0
     RDKit          3D

 44 45  0  0  0  0  0  0  0  0999 V2000
  144.7110  160.9950  133.3690 C   0  0  0  0  0  0  0  0  0  0  0  0
  145.7590  159.9240  133.4350 C   0  0  0  0  0  0  0  0  0  0  0  0
  147.1220  160.2880  133.5580 C   0  0  0  0  0  0  0  0  0  0  0  0
  148.1220  159.3030  133.6130 C   0  0  0  0  0  0  0  0  0  0  0  0
  147.7310  157.9700  133.5260 C   0  0  0  0  0  0  0  0  0  0  0  0
  148.4890  156.8230  133.5700 C   0  0  0  0  0  0  0  0  0  0  0  0
  147.5830  155.7760  133.4360 C   0  0  0  0  0  0  0  0  0  0  0  0
  147.9910  154.3580  133.3410 C   0  0  0  0  0  0  0  0  0  0  0  0
  147.8760  153.5100  134.4810 N   0  0  0  0  0  0  0  0  0  0  0  0
  148.4790  153.8980  132.2760 O   0  0  0  0  0  0  0  0  0  0  0  0
  146.3090  156.2530  133.3260 N   0  0  0  0  0  0  0  0  0  0  0  0
  145.0890  155.4990  133.2310 C   0  0  0  0  0  0  0  0  0  0  0  0
  144.6830  155.0900  132.1080 O   0  0  0  0  0  0  0  0  0  0  0  0
  144.3650  155.2010  134.3880 O   0  0  0  0  0  0  0  0  0  0  0  0
  144.6670  154.0900  135.2240 C   0  0  0  0  0  0  0  0  0  0  0  0
  145.2090  153.0340  134.4390 O   0  0  0  0  0  0  0  0  0  0  0  0
  144.4790  152.3720  133.4460 C   0  0  0  0  0  0  0  0  0  0  0  0
  143.2300  152.2310  133.5510 O   0  0  0  0  0  0  0  0  0  0  0  0
  145.1950  151.8090  132.2550 C   0  0  0  0  0  0  0  0  0  0  0  0
  146.6540  151.9880  132.3590 N   0  0  0  0  0  0  0  0  0  0  0  0
  147.3860  150.8110  131.8610 C   0  0  0  0  0  0  0  0  0  0  0  0
  148.8300  150.7910  132.3780 C   0  0  0  0  0  0  0  0  0  0  0  0
  148.9050  151.3050  133.6810 O   0  0  0  0  0  0  0  0  0  0  0  0
  146.4180  157.6010  133.3780 C   0  0  0  0  0  0  0  0  0  0  0  0
  145.3990  158.5620  133.3390 C   0  0  0  0  0  0  0  0  0  0  0  0
  144.4229  161.2894  134.3890 H   0  0  0  0  0  0  0  0  0  0  0  0
  145.1127  161.8687  132.8348 H   0  0  0  0  0  0  0  0  0  0  0  0
  143.8288  160.6124  132.8348 H   0  0  0  0  0  0  0  0  0  0  0  0
  147.4000  161.3510  133.6109 H   0  0  0  0  0  0  0  0  0  0  0  0
  149.1818  159.5768  133.7215 H   0  0  0  0  0  0  0  0  0  0  0  0
  149.5803  156.7493  133.6865 H   0  0  0  0  0  0  0  0  0  0  0  0
  147.3380  152.6160  134.4340 H   0  0  0  0  0  0  0  0  0  0  0  0
  145.4006  154.3937  135.9853 H   0  0  0  0  0  0  0  0  0  0  0  0
  143.7466  153.7432  135.7165 H   0  0  0  0  0  0  0  0  0  0  0  0
  144.9725  150.7343  132.1809 H   0  0  0  0  0  0  0  0  0  0  0  0
  144.8472  152.3472  131.3609 H   0  0  0  0  0  0  0  0  0  0  0  0
  146.9180  152.1800  133.3540 H   0  0  0  0  0  0  0  0  0  0  0  0
  146.9140  152.8220  131.7830 H   0  0  0  0  0  0  0  0  0  0  0  0
  146.8717  149.8997  132.2000 H   0  0  0  0  0  0  0  0  0  0  0  0
  147.4119  150.8583  130.7623 H   0  0  0  0  0  0  0  0  0  0  0  0
  149.1974  149.7542  132.3787 H   0  0  0  0  0  0  0  0  0  0  0  0
  149.4471  151.4183  131.7180 H   0  0  0  0  0  0  0  0  0  0  0  0
  148.4400  152.1820  133.6670 H   0  0  0  0  0  0  0  0  0  0  0  0
  144.3454  158.2630  133.2362 H   0  0  0  0  0  0  0  0  0  0  0  0
  1  2  1  0
  2  3  2  0
  3  4  1  0
  4  5  2  0
  5  6  1  0
  6  7  2  0
  7  8  1  0
  8  9  1  0
  8 10  2  0
  7 11  1  0
 11 12  1  0
 12 13  2  0
 12 14  1  0
 14 15  1  0
 15 16  1  0
 16 17  1  0
 17 18  2  0
 17 19  1  0
 19 20  1  0
 20 21  1  0
 21 22  1  0
 22 23  1  0
 11 24  1  0
 24 25  2  0
 25  2  1  0
 24  5  1  0
  1 26  1  0
  1 27  1  0
  1 28  1  0
  3 29  1  0
  4 30  1  0
  6 31  1  0
  9 32  1  0
 15 33  1  0
 15 34  1  0
 19 35  1  0
 19 36  1  0
 20 37  1  0
 20 38  1  0
 21 39  1  0
 21 40  1  0
 22 41  1  0
 22 42  1  0
 23 43  1  0
 25 44  1  0
M  CHG  2   9  -1  20   1
M  END
>  <UniqueID>  (31) 
30

>  <SMILES>  (31) 
Cc1ccc2cc(C([NH-])=O)n(C(=O)OCOC(=O)C[NH2+]CCO)c2c1

>  <Energy>  (31) 
73.66829238848224

>  <Genealogy>  (31) 
Cc1ccc2cc(C([NH-])=O)n(C(=O)OCOC(=O)C[NH2+]CCO)c2c1 (protonated)
Cc1ccc2cc(C([NH-])=O)n(C(=O)OCOC(=O)C[NH2+]CCO)c2c1 (3D coordinates assigned)
Cc1ccc2cc(C([NH-])=O)n(C(=O)OCOC(=O)C[NH2+]CCO)c2c1 (optimized conformer: 73.66829238848224 kcal/mol)

>  <smiles>  (31) 
Cc1ccc2cc(C(N)=O)n(C(=O)OCOC(=O)CNCCO)c2c1

>  <score_type>  (31) 
oracle

>  <origin>  (31) 
adg

>  <m_score__min__energy>  (31) 
-5.0999999999999996

>  <m_primary>  (31) 
energy

$$$$
33:0
     RDKit          3D

 61 64  0  0  0  0  0  0  0  0999 V2000
  148.0670  159.9030  131.9420 C   0  0  0  0  0  0  0  0  0  0  0  0
  147.2430  158.8170  132.6210 C   0  0  0  0  0  0  0  0  0  0  0  0
  148.2900  157.5050  133.2300 S   0  0  0  0  0  0  0  0  0  0  0  0
  148.6770  157.7780  134.6580 O   0  0  0  0  0  0  0  0  0  0  0  0
  149.5410  157.4210  132.3980 O   0  0  0  0  0  0  0  0  0  0  0  0
  147.4100  155.9840  133.1370 C   0  0  0  0  0  0  0  0  0  0  0  0
  146.2680  155.8800  132.3340 C   0  0  0  0  0  0  0  0  0  0  0  0
  145.5880  154.6640  132.2300 C   0  0  0  0  0  0  0  0  0  0  0  0
  146.0530  153.5290  132.9150 C   0  0  0  0  0  0  0  0  0  0  0  0
  145.3370  152.2390  132.7870 C   0  0  0  0  0  0  0  0  0  0  0  0
  145.8950  151.2840  132.1850 O   0  0  0  0  0  0  0  0  0  0  0  0
  144.0120  152.0480  133.3010 N   0  0  0  0  0  0  0  0  0  0  0  0
  142.9780  153.0400  133.3210 C   0  0  0  0  0  0  0  0  0  0  0  0
  141.6790  152.6900  132.9470 C   0  0  0  0  0  0  0  0  0  0  0  0
  140.6730  153.6560  132.9760 C   0  0  0  0  0  0  0  0  0  0  0  0
  140.9620  154.9670  133.3910 C   0  0  0  0  0  0  0  0  0  0  0  0
  139.9030  156.0040  133.4160 C   0  0  0  0  0  0  0  0  0  0  0  0
  138.7340  155.7150  133.0400 O   0  0  0  0  0  0  0  0  0  0  0  0
  140.1870  157.3460  133.8420 N   0  0  0  0  0  0  0  0  0  0  0  0
  140.0020  158.4940  133.1340 C   0  0  0  0  0  0  0  0  0  0  0  0
  139.6140  158.5770  131.7110 C   0  0  0  0  0  0  0  0  0  0  0  0
  138.4770  157.8730  131.2070 N   0  0  0  0  0  0  0  0  0  0  0  0
  140.3260  159.2460  130.9150 O   0  0  0  0  0  0  0  0  0  0  0  0
  140.2460  159.6070  133.9350 C   0  0  0  0  0  0  0  0  0  0  0  0
  140.5920  159.0990  135.1670 C   0  0  0  0  0  0  0  0  0  0  0  0
  140.9210  159.7560  136.3470 C   0  0  0  0  0  0  0  0  0  0  0  0
  141.2010  158.9770  137.4810 C   0  0  0  0  0  0  0  0  0  0  0  0
  141.1390  157.5550  137.4290 C   0  0  0  0  0  0  0  0  0  0  0  0
  141.4300  156.7570  138.6060 N   0  0  0  0  0  0  0  0  0  0  0  0
  140.9710  155.3660  138.6970 C   0  0  0  0  0  0  0  0  0  0  0  0
  142.1850  157.3320  139.7280 C   0  0  0  0  0  0  0  0  0  0  0  0
  140.7880  156.9310  136.2050 C   0  0  0  0  0  0  0  0  0  0  0  0
  140.5420  157.7340  135.0870 C   0  0  0  0  0  0  0  0  0  0  0  0
  142.2810  155.2710  133.7660 C   0  0  0  0  0  0  0  0  0  0  0  0
  143.2430  154.3110  133.7290 N   0  0  0  0  0  0  0  0  0  0  0  0
  147.1870  153.6430  133.7360 C   0  0  0  0  0  0  0  0  0  0  0  0
  147.8680  154.8600  133.8380 C   0  0  0  0  0  0  0  0  0  0  0  0
  148.5449  160.5328  132.7068 H   0  0  0  0  0  0  0  0  0  0  0  0
  148.8411  159.4374  131.3144 H   0  0  0  0  0  0  0  0  0  0  0  0
  147.4101  160.5232  131.3144 H   0  0  0  0  0  0  0  0  0  0  0  0
  146.6919  159.2582  133.4646 H   0  0  0  0  0  0  0  0  0  0  0  0
  146.5451  158.3942  131.8833 H   0  0  0  0  0  0  0  0  0  0  0  0
  145.9045  156.7596  131.7825 H   0  0  0  0  0  0  0  0  0  0  0  0
  144.6833  154.5949  131.6082 H   0  0  0  0  0  0  0  0  0  0  0  0
  141.4508  151.6610  132.6321 H   0  0  0  0  0  0  0  0  0  0  0  0
  139.6495  153.3904  132.6728 H   0  0  0  0  0  0  0  0  0  0  0  0
  137.9810  157.1600  131.7840 H   0  0  0  0  0  0  0  0  0  0  0  0
  138.1910  157.9900  130.2100 H   0  0  0  0  0  0  0  0  0  0  0  0
  140.1770  160.6659  133.6452 H   0  0  0  0  0  0  0  0  0  0  0  0
  140.9608  160.8544  136.3910 H   0  0  0  0  0  0  0  0  0  0  0  0
  141.4726  159.4728  138.4246 H   0  0  0  0  0  0  0  0  0  0  0  0
  140.8765  155.0795  139.7548 H   0  0  0  0  0  0  0  0  0  0  0  0
  139.9933  155.2694  138.2022 H   0  0  0  0  0  0  0  0  0  0  0  0
  141.6992  154.7065  138.2022 H   0  0  0  0  0  0  0  0  0  0  0  0
  141.7434  156.9957  140.6777 H   0  0  0  0  0  0  0  0  0  0  0  0
  143.2325  157.0008  139.6731 H   0  0  0  0  0  0  0  0  0  0  0  0
  142.1442  158.4299  139.6731 H   0  0  0  0  0  0  0  0  0  0  0  0
  140.7107  155.8359  136.1363 H   0  0  0  0  0  0  0  0  0  0  0  0
  142.5368  156.2903  134.0911 H   0  0  0  0  0  0  0  0  0  0  0  0
  147.5416  152.7692  134.3024 H   0  0  0  0  0  0  0  0  0  0  0  0
  148.7652  154.9354  134.4699 H   0  0  0  0  0  0  0  0  0  0  0  0
  1  2  1  0
  2  3  1  0
  3  4  2  0
  3  5  2  0
  3  6  1  0
  6  7  2  0
  7  8  1  0
  8  9  2  0
  9 10  1  0
 10 11  2  0
 10 12  1  0
 12 13  1  0
 13 14  2  0
 14 15  1  0
 15 16  2  0
 16 17  1  0
 17 18  2  0
 17 19  1  0
 19 20  1  0
 20 21  1  0
 21 22  1  0
 21 23  2  0
 20 24  2  0
 24 25  1  0
 25 26  2  0
 26 27  1  0
 27 28  2  0
 28 29  1  0
 29 30  1  0
 29 31  1  0
 28 32  1  0
 32 33  2  0
 16 34  1  0
 34 35  2  0
  9 36  1  0
 36 37  2  0
 37  6  1  0
 35 13  1  0
 33 19  1  0
 33 25  1  0
  1 38  1  0
  1 39  1  0
  1 40  1  0
  2 41  1  0
  2 42  1  0
  7 43  1  0
  8 44  1  0
 14 45  1  0
 15 46  1  0
 22 47  1  0
 22 48  1  0
 24 49  1  0
 26 50  1  0
 27 51  1  0
 30 52  1  0
 30 53  1  0
 30 54  1  0
 31 55  1  0
 31 56  1  0
 31 57  1  0
 32 58  1  0
 34 59  1  0
 36 60  1  0
 37 61  1  0
M  CHG  1  12  -1
M  END
>  <UniqueID>  (32) 
31

>  <SMILES>  (32) 
CCS(=O)(=O)c1ccc(C(=O)[N-]c2ccc(C(=O)n3c(C(N)=O)cc4ccc(N(C)C)cc43)cn2)cc1

>  <Energy>  (32) 
108.16534387188585

>  <Genealogy>  (32) 
CCS(=O)(=O)c1ccc(C(=O)[N-]c2ccc(C(=O)n3c(C(N)=O)cc4ccc(N(C)C)cc43)cn2)cc1 (protonated)
CCS(=O)(=O)c1ccc(C(=O)[N-]c2ccc(C(=O)n3c(C(N)=O)cc4ccc(N(C)C)cc43)cn2)cc1 (3D coordinates assigned)
CCS(=O)(=O)c1ccc(C(=O)[N-]c2ccc(C(=O)n3c(C(N)=O)cc4ccc(N(C)C)cc43)cn2)cc1 (optimized conformer: 108.16534387188585 kcal/mol)

>  <smiles>  (32) 
CCS(=O)(=O)c1ccc(C(=O)Nc2ccc(C(=O)n3c(C(N)=O)cc4ccc(N(C)C)cc43)cn2)cc1

>  <score_type>  (32) 
oracle

>  <origin>  (32) 
adg

>  <m_score__min__energy>  (32) 
-11.289999999999999

>  <m_primary>  (32) 
energy

$$$$
34:0
     RDKit          3D

 41 42  0  0  0  0  0  0  0  0999 V2000
  141.7140  157.1670  138.4870 C   0  0  0  0  0  0  0  0  0  0  0  0
  141.7180  158.4880  137.9580 O   0  0  0  0  0  0  0  0  0  0  0  0
  140.8340  158.9000  136.9580 C   0  0  0  0  0  0  0  0  0  0  0  0
  140.6140  160.1270  136.7610 O   0  0  0  0  0  0  0  0  0  0  0  0
  140.1830  157.9120  136.1550 N   0  0  0  0  0  0  0  0  0  0  0  0
  139.5590  158.1990  134.8670 C   0  0  0  0  0  0  0  0  0  0  0  0
  140.4290  157.7030  133.7070 C   0  0  0  0  0  0  0  0  0  0  0  0
  141.7610  158.4060  133.6840 C   0  0  0  0  0  0  0  0  0  0  0  0
  141.8180  159.8210  133.7230 C   0  0  0  0  0  0  0  0  0  0  0  0
  143.0530  160.4880  133.7290 C   0  0  0  0  0  0  0  0  0  0  0  0
  144.2120  159.7170  133.7160 C   0  0  0  0  0  0  0  0  0  0  0  0
  145.5310  160.1040  133.6980 C   0  0  0  0  0  0  0  0  0  0  0  0
  146.2630  158.9200  133.6910 C   0  0  0  0  0  0  0  0  0  0  0  0
  147.7370  158.8750  133.7410 C   0  0  0  0  0  0  0  0  0  0  0  0
  148.4330  157.6490  133.9770 N   0  0  0  0  0  0  0  0  0  0  0  0
  148.3930  159.9450  133.6310 O   0  0  0  0  0  0  0  0  0  0  0  0
  145.4300  157.8400  133.6880 N   0  0  0  0  0  0  0  0  0  0  0  0
  145.7970  156.4550  133.5820 C   0  0  0  0  0  0  0  0  0  0  0  0
  146.5870  156.0830  132.6710 O   0  0  0  0  0  0  0  0  0  0  0  0
  145.2770  155.5240  134.4870 O   0  0  0  0  0  0  0  0  0  0  0  0
  145.8510  154.2380  134.7040 C   0  0  0  0  0  0  0  0  0  0  0  0
  146.9130  154.3160  135.7530 C   0  0  0  0  0  0  0  0  0  0  0  0
  147.7080  155.2920  135.7820 O   0  0  0  0  0  0  0  0  0  0  0  0
  147.0010  153.3270  136.7240 O   0  0  0  0  0  0  0  0  0  0  0  0
  144.1760  158.3450  133.7060 C   0  0  0  0  0  0  0  0  0  0  0  0
  142.9590  157.6560  133.6740 C   0  0  0  0  0  0  0  0  0  0  0  0
  141.7141  157.2122  139.5861 H   0  0  0  0  0  0  0  0  0  0  0  0
  140.8143  156.6366  138.1419 H   0  0  0  0  0  0  0  0  0  0  0  0
  142.6105  156.6311  138.1419 H   0  0  0  0  0  0  0  0  0  0  0  0
  138.5812  157.6972  134.8223 H   0  0  0  0  0  0  0  0  0  0  0  0
  139.4405  159.2885  134.7724 H   0  0  0  0  0  0  0  0  0  0  0  0
  140.5961  156.6218  133.8210 H   0  0  0  0  0  0  0  0  0  0  0  0
  139.9060  157.9180  132.7635 H   0  0  0  0  0  0  0  0  0  0  0  0
  140.8849  160.4029  133.7489 H   0  0  0  0  0  0  0  0  0  0  0  0
  143.1035  161.5868  133.7435 H   0  0  0  0  0  0  0  0  0  0  0  0
  145.9245  161.1312  133.6907 H   0  0  0  0  0  0  0  0  0  0  0  0
  149.4770  157.6300  133.9690 H   0  0  0  0  0  0  0  0  0  0  0  0
  147.9200  156.7800  134.2430 H   0  0  0  0  0  0  0  0  0  0  0  0
  145.0663  153.5408  135.0328 H   0  0  0  0  0  0  0  0  0  0  0  0
  146.3002  153.8828  133.7648 H   0  0  0  0  0  0  0  0  0  0  0  0
  142.9349  156.5567  133.6418 H   0  0  0  0  0  0  0  0  0  0  0  0
  1  2  1  0
  2  3  1  0
  3  4  2  0
  3  5  1  0
  5  6  1  0
  6  7  1  0
  7  8  1  0
  8  9  2  0
  9 10  1  0
 10 11  2  0
 11 12  1  0
 12 13  2  0
 13 14  1  0
 14 15  1  0
 14 16  2  0
 13 17  1  0
 17 18  1  0
 18 19  2  0
 18 20  1  0
 20 21  1  0
 21 22  1  0
 22 23  2  0
 22 24  1  0
 17 25  1  0
 25 26  2  0
 26  8  1  0
 25 11  1  0
  1 27  1  0
  1 28  1  0
  1 29  1  0
  6 30  1  0
  6 31  1  0
  7 32  1  0
  7 33  1  0
  9 34  1  0
 10 35  1  0
 12 36  1  0
 15 37  1  0
 15 38  1  0
 21 39  1  0
 21 40  1  0
 26 41  1  0
M  CHG  2   5  -1  24  -1
M  END
>  <UniqueID>  (33) 
32

>  <SMILES>  (33) 
COC(=O)[N-]CCc1ccc2cc(C(N)=O)n(C(=O)OCC(=O)[O-])c2c1

>  <Energy>  (33) 
70.16372045035737

>  <Genealogy>  (33) 
COC(=O)[N-]CCc1ccc2cc(C(N)=O)n(C(=O)OCC(=O)[O-])c2c1 (protonated)
COC(=O)[N-]CCc1ccc2cc(C(N)=O)n(C(=O)OCC(=O)[O-])c2c1 (3D coordinates assigned)
COC(=O)[N-]CCc1ccc2cc(C(N)=O)n(C(=O)OCC(=O)[O-])c2c1 (optimized conformer: 70.16372045035737 kcal/mol)

>  <smiles>  (33) 
COC(=O)NCCc1ccc2cc(C(N)=O)n(C(=O)OCC(=O)O)c2c1

>  <score_type>  (33) 
oracle

>  <origin>  (33) 
adg

>  <m_score__min__energy>  (33) 
-6.6900000000000004

>  <m_primary>  (33) 
energy

$$$$
35:0
     RDKit          3D

 40 41  0  0  0  0  0  0  0  0999 V2000
  146.7500  153.9540  133.1100 C   0  0  0  0  0  0  0  0  0  0  0  0
  147.8720  154.8820  132.9210 N   0  0  0  0  0  0  0  0  0  0  0  0
  149.1980  154.3370  132.6020 C   0  0  0  0  0  0  0  0  0  0  0  0
  147.6740  156.3150  133.0470 C   0  0  0  0  0  0  0  0  0  0  0  0
  148.7730  157.2140  132.9440 C   0  0  0  0  0  0  0  0  0  0  0  0
  148.5880  158.6030  133.0460 C   0  0  0  0  0  0  0  0  0  0  0  0
  147.2990  159.0750  133.2620 C   0  0  0  0  0  0  0  0  0  0  0  0
  146.8340  160.3670  133.3630 C   0  0  0  0  0  0  0  0  0  0  0  0
  145.4570  160.2500  133.5510 C   0  0  0  0  0  0  0  0  0  0  0  0
  144.5630  161.4050  133.7740 C   0  0  0  0  0  0  0  0  0  0  0  0
  143.1490  161.2690  133.6670 N   0  0  0  0  0  0  0  0  0  0  0  0
  145.0520  162.5180  134.1060 O   0  0  0  0  0  0  0  0  0  0  0  0
  145.0900  158.9380  133.5650 N   0  0  0  0  0  0  0  0  0  0  0  0
  143.7620  158.3990  133.6310 C   0  0  0  0  0  0  0  0  0  0  0  0
  143.2330  157.9090  132.5970 O   0  0  0  0  0  0  0  0  0  0  0  0
  143.0500  158.4550  134.8370 O   0  0  0  0  0  0  0  0  0  0  0  0
  141.9450  157.6060  135.1430 C   0  0  0  0  0  0  0  0  0  0  0  0
  140.6130  158.3410  134.9390 C   0  0  0  0  0  0  0  0  0  0  0  0
  140.2550  158.5540  133.4660 C   0  0  0  0  0  0  0  0  0  0  0  0
  141.0050  159.6110  132.9310 O   0  0  0  0  0  0  0  0  0  0  0  0
  146.2270  158.2340  133.3850 C   0  0  0  0  0  0  0  0  0  0  0  0
  146.3770  156.8480  133.2690 C   0  0  0  0  0  0  0  0  0  0  0  0
  146.5727  153.8073  134.1857 H   0  0  0  0  0  0  0  0  0  0  0  0
  145.8459  154.3718  132.6430 H   0  0  0  0  0  0  0  0  0  0  0  0
  146.9908  152.9876  132.6430 H   0  0  0  0  0  0  0  0  0  0  0  0
  149.7374  154.1153  133.5347 H   0  0  0  0  0  0  0  0  0  0  0  0
  149.0834  153.4130  132.0162 H   0  0  0  0  0  0  0  0  0  0  0  0
  149.7663  155.0745  132.0162 H   0  0  0  0  0  0  0  0  0  0  0  0
  149.7848  156.8141  132.7817 H   0  0  0  0  0  0  0  0  0  0  0  0
  149.4378  159.2959  132.9576 H   0  0  0  0  0  0  0  0  0  0  0  0
  147.4232  161.2942  133.3073 H   0  0  0  0  0  0  0  0  0  0  0  0
  142.6750  160.3760  133.9280 H   0  0  0  0  0  0  0  0  0  0  0  0
  141.9746  156.7257  134.4841 H   0  0  0  0  0  0  0  0  0  0  0  0
  142.0190  157.3012  136.1973 H   0  0  0  0  0  0  0  0  0  0  0  0
  139.8134  157.7506  135.4102 H   0  0  0  0  0  0  0  0  0  0  0  0
  140.7187  159.3367  135.3945 H   0  0  0  0  0  0  0  0  0  0  0  0
  140.4716  157.6340  132.9032 H   0  0  0  0  0  0  0  0  0  0  0  0
  139.1855  158.7995  133.3895 H   0  0  0  0  0  0  0  0  0  0  0  0
  141.9200  159.5120  133.3000 H   0  0  0  0  0  0  0  0  0  0  0  0
  145.5048  156.1824  133.3484 H   0  0  0  0  0  0  0  0  0  0  0  0
  1  2  1  0
  2  3  1  0
  2  4  1  0
  4  5  2  0
  5  6  1  0
  6  7  2  0
  7  8  1  0
  8  9  2  0
  9 10  1  0
 10 11  1  0
 10 12  2  0
  9 13  1  0
 13 14  1  0
 14 15  2  0
 14 16  1  0
 16 17  1  0
 17 18  1  0
 18 19  1  0
 19 20  1  0
 13 21  1  0
 21 22  2  0
 22  4  1  0
 21  7  1  0
  1 23  1  0
  1 24  1  0
  1 25  1  0
  3 26  1  0
  3 27  1  0
  3 28  1  0
  5 29  1  0
  6 30  1  0
  8 31  1  0
 11 32  1  0
 17 33  1  0
 17 34  1  0
 18 35  1  0
 18 36  1  0
 19 37  1  0
 19 38  1  0
 20 39  1  0
 22 40  1  0
M  CHG  1  11  -1
M  END
>  <UniqueID>  (34) 
33

>  <SMILES>  (34) 
CN(C)c1ccc2cc(C([NH-])=O)n(C(=O)OCCCO)c2c1

>  <Energy>  (34) 
75.52552044963494

>  <Genealogy>  (34) 
CN(C)c1ccc2cc(C([NH-])=O)n(C(=O)OCCCO)c2c1 (protonated)
CN(C)c1ccc2cc(C([NH-])=O)n(C(=O)OCCCO)c2c1 (3D coordinates assigned)
CN(C)c1ccc2cc(C([NH-])=O)n(C(=O)OCCCO)c2c1 (optimized conformer: 75.52552044963494 kcal/mol)

>  <smiles>  (34) 
CN(C)c1ccc2cc(C(N)=O)n(C(=O)OCCCO)c2c1

>  <score_type>  (34) 
oracle

>  <origin>  (34) 
adg

>  <m_score__min__energy>  (34) 
-5.1500000000000004

>  <m_primary>  (34) 
energy

$$$$
36:0
     RDKit          3D

 35 36  0  0  0  0  0  0  0  0999 V2000
  143.4680  153.7950  137.1530 C   0  0  0  0  0  0  0  0  0  0  0  0
  143.7170  154.1890  135.7610 N   0  0  0  0  0  0  0  0  0  0  0  0
  145.0850  154.1130  135.2350 C   0  0  0  0  0  0  0  0  0  0  0  0
  142.6270  154.6510  134.9200 C   0  0  0  0  0  0  0  0  0  0  0  0
  141.6960  153.7280  134.3600 C   0  0  0  0  0  0  0  0  0  0  0  0
  140.6300  154.1670  133.5570 C   0  0  0  0  0  0  0  0  0  0  0  0
  140.5100  155.5310  133.3210 C   0  0  0  0  0  0  0  0  0  0  0  0
  139.5620  156.2290  132.6060 C   0  0  0  0  0  0  0  0  0  0  0  0
  139.9250  157.5690  132.7240 C   0  0  0  0  0  0  0  0  0  0  0  0
  139.2160  158.6780  132.0530 C   0  0  0  0  0  0  0  0  0  0  0  0
  139.9210  159.5340  131.1570 N   0  0  0  0  0  0  0  0  0  0  0  0
  137.9950  158.8920  132.2820 O   0  0  0  0  0  0  0  0  0  0  0  0
  141.0490  157.6900  133.4830 N   0  0  0  0  0  0  0  0  0  0  0  0
  141.7080  158.8940  133.9010 C   0  0  0  0  0  0  0  0  0  0  0  0
  142.0250  159.7600  133.0430 O   0  0  0  0  0  0  0  0  0  0  0  0
  142.1340  159.0710  135.3260 C   0  0  0  0  0  0  0  0  0  0  0  0
  140.7570  158.6650  136.4400 P   0  0  0  0  0  0  0  0  0  0  0  0
  139.4620  158.6200  135.6610 O   0  0  0  0  0  0  0  0  0  0  0  0
  140.6440  159.8390  137.6520 O   0  0  0  0  0  0  0  0  0  0  0  0
  141.0380  157.1560  137.1480 O   0  0  0  0  0  0  0  0  0  0  0  0
  141.3970  156.4360  133.8360 C   0  0  0  0  0  0  0  0  0  0  0  0
  142.4630  156.0340  134.6430 C   0  0  0  0  0  0  0  0  0  0  0  0
  143.9312  154.5279  137.8300 H   0  0  0  0  0  0  0  0  0  0  0  0
  142.3839  153.7607  137.3361 H   0  0  0  0  0  0  0  0  0  0  0  0
  143.9024  152.8011  137.3361 H   0  0  0  0  0  0  0  0  0  0  0  0
  145.7979  154.0734  136.0718 H   0  0  0  0  0  0  0  0  0  0  0  0
  145.1914  153.2076  134.6195 H   0  0  0  0  0  0  0  0  0  0  0  0
  145.2910  155.0011  134.6195 H   0  0  0  0  0  0  0  0  0  0  0  0
  141.8144  152.6529  134.5602 H   0  0  0  0  0  0  0  0  0  0  0  0
  139.9121  153.4525  133.1281 H   0  0  0  0  0  0  0  0  0  0  0  0
  138.7017  155.8165  132.0585 H   0  0  0  0  0  0  0  0  0  0  0  0
  140.9650  159.5630  131.1510 H   0  0  0  0  0  0  0  0  0  0  0  0
  142.9830  158.4045  135.5381 H   0  0  0  0  0  0  0  0  0  0  0  0
  142.4326  160.1174  135.4868 H   0  0  0  0  0  0  0  0  0  0  0  0
  143.1629  156.7750  135.0566 H   0  0  0  0  0  0  0  0  0  0  0  0
  1  2  1  0
  2  3  1  0
  2  4  1  0
  4  5  2  0
  5  6  1  0
  6  7  2  0
  7  8  1  0
  8  9  2  0
  9 10  1  0
 10 11  1  0
 10 12  2  0
  9 13  1  0
 13 14  1  0
 14 15  2  0
 14 16  1  0
 16 17  1  0
 17 18  2  0
 17 19  1  0
 17 20  1  0
 13 21  1  0
 21 22  2  0
 22  4  1  0
 21  7  1  0
  1 23  1  0
  1 24  1  0
  1 25  1  0
  3 26  1  0
  3 27  1  0
  3 28  1  0
  5 29  1  0
  6 30  1  0
  8 31  1  0
 11 32  1  0
 16 33  1  0
 16 34  1  0
 22 35  1  0
M  CHG  3  11  -1  19  -1  20  -1
M  END
>  <UniqueID>  (35) 
34

>  <SMILES>  (35) 
CN(C)c1ccc2cc(C([NH-])=O)n(C(=O)CP(=O)([O-])[O-])c2c1

>  <Energy>  (35) 
70.33288134346175

>  <Genealogy>  (35) 
CN(C)c1ccc2cc(C([NH-])=O)n(C(=O)CP(=O)([O-])[O-])c2c1 (protonated)
CN(C)c1ccc2cc(C([NH-])=O)n(C(=O)CP(=O)([O-])[O-])c2c1 (3D coordinates assigned)
CN(C)c1ccc2cc(C([NH-])=O)n(C(=O)CP(=O)([O-])[O-])c2c1 (optimized conformer: 70.33288134346175 kcal/mol)

>  <smiles>  (35) 
CN(C)c1ccc2cc(C(N)=O)n(C(=O)CP(=O)(O)O)c2c1

>  <score_type>  (35) 
oracle

>  <origin>  (35) 
adg

>  <m_score__min__energy>  (35) 
-5.8799999999999999

>  <m_primary>  (35) 
energy

$$$$
37:0
     RDKit          3D

 48 50  0  0  0  0  0  0  0  0999 V2000
  142.4340  157.8950  135.8150 N   0  0  0  0  0  0  0  0  0  0  0  0
  141.3010  157.6670  136.6490 C   0  0  0  0  0  0  0  0  0  0  0  0
  140.4040  158.5480  136.7250 O   0  0  0  0  0  0  0  0  0  0  0  0
  141.1700  156.3900  137.3810 C   0  0  0  0  0  0  0  0  0  0  0  0
  140.6250  156.2870  138.6600 C   0  0  0  0  0  0  0  0  0  0  0  0
  140.7620  154.9630  139.0100 C   0  0  0  0  0  0  0  0  0  0  0  0
  140.3710  154.2960  140.1680 C   0  0  0  0  0  0  0  0  0  0  0  0
  140.6040  152.9120  140.2430 C   0  0  0  0  0  0  0  0  0  0  0  0
  141.2150  152.2250  139.1640 C   0  0  0  0  0  0  0  0  0  0  0  0
  141.4350  150.7410  139.2520 C   0  0  0  0  0  0  0  0  0  0  0  0
  140.9140  150.1240  138.1290 F   0  0  0  0  0  0  0  0  0  0  0  0
  142.7900  150.4760  139.3340 F   0  0  0  0  0  0  0  0  0  0  0  0
  141.5980  152.9350  138.0060 C   0  0  0  0  0  0  0  0  0  0  0  0
  141.3680  154.3140  137.9660 C   0  0  0  0  0  0  0  0  0  0  0  0
  141.6230  155.1760  136.9570 N   0  0  0  0  0  0  0  0  0  0  0  0
  142.1690  154.8360  135.6740 C   0  0  0  0  0  0  0  0  0  0  0  0
  143.3400  155.1940  135.3720 O   0  0  0  0  0  0  0  0  0  0  0  0
  141.3840  154.1390  134.7480 O   0  0  0  0  0  0  0  0  0  0  0  0
  141.4910  154.3400  133.3420 C   0  0  0  0  0  0  0  0  0  0  0  0
  140.8780  155.5750  132.9830 O   0  0  0  0  0  0  0  0  0  0  0  0
  141.4830  156.8200  133.2090 C   0  0  0  0  0  0  0  0  0  0  0  0
  142.6910  156.9980  132.8910 O   0  0  0  0  0  0  0  0  0  0  0  0
  140.7210  157.9240  133.7550 N   0  0  2  0  0  0  0  0  0  0  0  0
  139.2900  157.5780  133.9990 C   0  0  0  0  0  0  0  0  0  0  0  0
  138.3010  158.2390  133.0150 C   0  0  0  0  0  0  0  0  0  0  0  0
  138.8670  158.2760  131.5950 C   0  0  1  0  0  0  0  0  0  0  0  0
  137.9380  158.8980  130.7460 O   0  0  0  0  0  0  0  0  0  0  0  0
  140.2170  159.0250  131.5480 C   0  0  0  0  0  0  0  0  0  0  0  0
  140.9020  159.1350  132.9250 C   0  0  0  0  0  0  0  0  0  0  0  0
  142.6710  157.2340  135.0410 H   0  0  0  0  0  0  0  0  0  0  0  0
  140.1799  157.0930  139.2618 H   0  0  0  0  0  0  0  0  0  0  0  0
  139.8941  154.8361  140.9992 H   0  0  0  0  0  0  0  0  0  0  0  0
  140.3099  152.3574  141.1463 H   0  0  0  0  0  0  0  0  0  0  0  0
  140.9299  150.3540  140.1493 H   0  0  0  0  0  0  0  0  0  0  0  0
  142.0658  152.4167  137.1560 H   0  0  0  0  0  0  0  0  0  0  0  0
  142.5530  154.3627  133.0561 H   0  0  0  0  0  0  0  0  0  0  0  0
  140.9836  153.5168  132.8178 H   0  0  0  0  0  0  0  0  0  0  0  0
  141.1440  158.1400  134.6890 H   0  0  0  0  0  0  0  0  0  0  0  0
  139.1804  156.4866  133.9168 H   0  0  0  0  0  0  0  0  0  0  0  0
  139.0399  157.9580  135.0005 H   0  0  0  0  0  0  0  0  0  0  0  0
  137.3626  157.6651  133.0113 H   0  0  0  0  0  0  0  0  0  0  0  0
  138.1247  159.2736  133.3443 H   0  0  0  0  0  0  0  0  0  0  0  0
  139.0473  157.2439  131.2599 H   0  0  0  0  0  0  0  0  0  0  0  0
  137.6660  158.2180  130.0750 H   0  0  0  0  0  0  0  0  0  0  0  0
  140.8909  158.4873  130.8648 H   0  0  0  0  0  0  0  0  0  0  0  0
  140.0094  160.0492  131.2048 H   0  0  0  0  0  0  0  0  0  0  0  0
  141.9789  159.2966  132.7697 H   0  0  0  0  0  0  0  0  0  0  0  0
  140.4356  159.9753  133.4601 H   0  0  0  0  0  0  0  0  0  0  0  0
  1  2  1  0
  2  3  2  0
  2  4  1  0
  4  5  2  0
  5  6  1  0
  6  7  2  0
  7  8  1  0
  8  9  2  0
  9 10  1  0
 10 11  1  0
 10 12  1  0
  9 13  1  0
 13 14  2  0
 14 15  1  0
 15 16  1  0
 16 17  2  0
 16 18  1  0
 18 19  1  0
 19 20  1  0
 20 21  1  0
 21 22  2  0
 21 23  1  0
 23 24  1  0
 24 25  1  0
 25 26  1  0
 26 27  1  0
 26 28  1  0
 28 29  1  0
 15  4  1  0
 29 23  1  0
 14  6  1  0
  1 30  1  0
  5 31  1  0
  7 32  1  0
  8 33  1  0
 10 34  1  0
 13 35  1  0
 19 36  1  0
 19 37  1  0
 23 38  1  1
 24 39  1  0
 24 40  1  0
 25 41  1  0
 25 42  1  0
 26 43  1  6
 27 44  1  0
 28 45  1  0
 28 46  1  0
 29 47  1  0
 29 48  1  0
M  CHG  2   1  -1  23   1
M  END
>  <UniqueID>  (36) 
35

>  <SMILES>  (36) 
[NH-]C(=O)c1cc2ccc(C(F)F)cc2n1C(=O)OCOC(=O)[NH+]1CCC(O)CC1

>  <Energy>  (36) 
91.21896893747339

>  <Genealogy>  (36) 
[NH-]C(=O)c1cc2ccc(C(F)F)cc2n1C(=O)OCOC(=O)[NH+]1CCC(O)CC1 (protonated)
[NH-]C(=O)c1cc2ccc(C(F)F)cc2n1C(=O)OCOC(=O)[NH+]1CCC(O)CC1 (3D coordinates assigned)
[NH-]C(=O)c1cc2ccc(C(F)F)cc2n1C(=O)OCOC(=O)[NH+]1CCC(O)CC1 (nonaromatic ring conformer: 91.21896893747339 kcal/mol)

>  <smiles>  (36) 
NC(=O)c1cc2ccc(C(F)F)cc2n1C(=O)OCOC(=O)N1CCC(O)CC1

>  <score_type>  (36) 
oracle

>  <origin>  (36) 
adg

>  <m_score__min__energy>  (36) 
-6.2999999999999998

>  <m_primary>  (36) 
energy

$$$$
38:0
     RDKit          3D

 53 54  0  0  0  0  0  0  0  0999 V2000
  140.5400  156.0050  133.2820 C   0  0  0  0  0  0  0  0  0  0  0  0
  141.6720  156.8170  133.5000 O   0  0  0  0  0  0  0  0  0  0  0  0
  141.6400  157.9180  132.6130 C   0  0  0  0  0  0  0  0  0  0  0  0
  141.4100  159.2430  133.3950 C   0  0  0  0  0  0  0  0  0  0  0  0
  140.2400  160.0320  132.7510 C   0  0  0  0  0  0  0  0  0  0  0  0
  139.9810  159.5550  131.4450 O   0  0  0  0  0  0  0  0  0  0  0  0
  138.6230  159.7580  131.1290 C   0  0  0  0  0  0  0  0  0  0  0  0
  141.0360  158.9280  134.8690 C   0  0  0  0  0  0  0  0  0  0  0  0
  142.1330  158.3560  135.5550 O   0  0  0  0  0  0  0  0  0  0  0  0
  141.7280  157.9470  136.8430 C   0  0  0  0  0  0  0  0  0  0  0  0
  142.6880  160.1350  133.3510 C   0  0  0  0  0  0  0  0  0  0  0  0
  143.8690  159.3650  133.1210 O   0  0  0  0  0  0  0  0  0  0  0  0
  145.1230  159.7030  133.6370 C   0  0  0  0  0  0  0  0  0  0  0  0
  145.2910  160.7940  134.2470 O   0  0  0  0  0  0  0  0  0  0  0  0
  146.2390  158.8300  133.4090 N   0  0  0  0  0  0  0  0  0  0  0  0
  146.3130  157.4990  133.6830 C   0  0  0  0  0  0  0  0  0  0  0  0
  145.3250  156.7370  134.4750 C   0  0  0  0  0  0  0  0  0  0  0  0
  143.9400  157.0850  134.4460 N   0  0  0  0  0  0  0  0  0  0  0  0
  145.6980  155.7550  135.1690 O   0  0  0  0  0  0  0  0  0  0  0  0
  147.4810  156.9540  133.1540 C   0  0  0  0  0  0  0  0  0  0  0  0
  148.1210  158.0030  132.5320 C   0  0  0  0  0  0  0  0  0  0  0  0
  149.3000  158.0200  131.7920 C   0  0  0  0  0  0  0  0  0  0  0  0
  149.6860  159.2320  131.1920 C   0  0  0  0  0  0  0  0  0  0  0  0
  148.8900  160.3950  131.3410 C   0  0  0  0  0  0  0  0  0  0  0  0
  149.2750  161.6660  130.6460 C   0  0  0  0  0  0  0  0  0  0  0  0
  147.6940  160.3370  132.0870 C   0  0  0  0  0  0  0  0  0  0  0  0
  147.3460  159.1220  132.6930 C   0  0  0  0  0  0  0  0  0  0  0  0
  140.1154  155.7004  134.2499 H   0  0  0  0  0  0  0  0  0  0  0  0
  139.7873  156.5704  132.7130 H   0  0  0  0  0  0  0  0  0  0  0  0
  140.8343  155.1108  132.7130 H   0  0  0  0  0  0  0  0  0  0  0  0
  142.5976  157.9770  132.0750 H   0  0  0  0  0  0  0  0  0  0  0  0
  140.8127  157.7772  131.9018 H   0  0  0  0  0  0  0  0  0  0  0  0
  139.3373  159.9083  133.3673 H   0  0  0  0  0  0  0  0  0  0  0  0
  140.5167  161.0951  132.6933 H   0  0  0  0  0  0  0  0  0  0  0  0
  138.0396  159.8452  132.0574 H   0  0  0  0  0  0  0  0  0  0  0  0
  138.5174  160.6819  130.5414 H   0  0  0  0  0  0  0  0  0  0  0  0
  138.2518  158.9054  130.5414 H   0  0  0  0  0  0  0  0  0  0  0  0
  140.7417  159.8602  135.3734 H   0  0  0  0  0  0  0  0  0  0  0  0
  140.2031  158.2095  134.8753 H   0  0  0  0  0  0  0  0  0  0  0  0
  142.2890  158.5135  137.6009 H   0  0  0  0  0  0  0  0  0  0  0  0
  140.6514  158.1363  136.9662 H   0  0  0  0  0  0  0  0  0  0  0  0
  141.9278  156.8723  136.9662 H   0  0  0  0  0  0  0  0  0  0  0  0
  142.5801  160.8708  132.5405 H   0  0  0  0  0  0  0  0  0  0  0  0
  142.7902  160.6315  134.3273 H   0  0  0  0  0  0  0  0  0  0  0  0
  143.6090  157.9430  133.9570 H   0  0  0  0  0  0  0  0  0  0  0  0
  143.2470  156.5190  134.9820 H   0  0  0  0  0  0  0  0  0  0  0  0
  147.8196  155.9094  133.2192 H   0  0  0  0  0  0  0  0  0  0  0  0
  149.9115  157.1125  131.6799 H   0  0  0  0  0  0  0  0  0  0  0  0
  150.6134  159.2776  130.6022 H   0  0  0  0  0  0  0  0  0  0  0  0
  149.5086  162.4371  131.3948 H   0  0  0  0  0  0  0  0  0  0  0  0
  150.1590  161.4864  130.0165 H   0  0  0  0  0  0  0  0  0  0  0  0
  148.4399  162.0072  130.0165 H   0  0  0  0  0  0  0  0  0  0  0  0
  147.0506  161.2232  132.1905 H   0  0  0  0  0  0  0  0  0  0  0  0
  1  2  1  0
  2  3  1  0
  3  4  1  0
  4  5  1  0
  5  6  1  0
  6  7  1  0
  4  8  1  0
  8  9  1  0
  9 10  1  0
  4 11  1  0
 11 12  1  0
 12 13  1  0
 13 14  2  0
 13 15  1  0
 15 16  1  0
 16 17  1  0
 17 18  1  0
 17 19  2  0
 16 20  2  0
 20 21  1  0
 21 22  2  0
 22 23  1  0
 23 24  2  0
 24 25  1  0
 24 26  1  0
 26 27  2  0
 27 15  1  0
 27 21  1  0
  1 28  1  0
  1 29  1  0
  1 30  1  0
  3 31  1  0
  3 32  1  0
  5 33  1  0
  5 34  1  0
  7 35  1  0
  7 36  1  0
  7 37  1  0
  8 38  1  0
  8 39  1  0
 10 40  1  0
 10 41  1  0
 10 42  1  0
 11 43  1  0
 11 44  1  0
 18 45  1  0
 18 46  1  0
 20 47  1  0
 22 48  1  0
 23 49  1  0
 25 50  1  0
 25 51  1  0
 25 52  1  0
 26 53  1  0
M  END
>  <UniqueID>  (37) 
36

>  <SMILES>  (37) 
COCC(COC)(COC)COC(=O)n1c(C(N)=O)cc2ccc(C)cc21

>  <Energy>  (37) 
89.58988974203844

>  <Genealogy>  (37) 
COCC(COC)(COC)COC(=O)n1c(C(N)=O)cc2ccc(C)cc21 (3D coordinates assigned)
COCC(COC)(COC)COC(=O)n1c(C(N)=O)cc2ccc(C)cc21 (optimized conformer: 89.58988974203844 kcal/mol)

>  <smiles>  (37) 
COCC(COC)(COC)COC(=O)n1c(C(N)=O)cc2ccc(C)cc21

>  <score_type>  (37) 
oracle

>  <origin>  (37) 
adg

>  <m_score__min__energy>  (37) 
-6.29

>  <m_primary>  (37) 
energy

$$$$
39:0
     RDKit          3D

 34 35  0  0  0  0  0  0  0  0999 V2000
  149.8570  157.8770  131.8840 N   0  0  0  0  0  0  0  0  0  0  0  0
  149.2790  159.1490  132.1640 C   0  0  0  0  0  0  0  0  0  0  0  0
  149.9300  160.1950  131.9010 O   0  0  0  0  0  0  0  0  0  0  0  0
  147.9090  159.2590  132.7080 C   0  0  0  0  0  0  0  0  0  0  0  0
  147.2680  160.4760  132.9290 C   0  0  0  0  0  0  0  0  0  0  0  0
  145.9960  160.1490  133.3410 C   0  0  0  0  0  0  0  0  0  0  0  0
  144.9320  160.9710  133.7050 C   0  0  0  0  0  0  0  0  0  0  0  0
  143.7370  160.3570  134.1170 C   0  0  0  0  0  0  0  0  0  0  0  0
  143.6310  158.9470  134.1630 C   0  0  0  0  0  0  0  0  0  0  0  0
  142.4130  158.3360  134.5960 N   0  0  0  0  0  0  0  0  0  0  0  0
  144.7280  158.1440  133.7880 C   0  0  0  0  0  0  0  0  0  0  0  0
  145.9010  158.7820  133.3650 C   0  0  0  0  0  0  0  0  0  0  0  0
  147.0700  158.2200  132.9830 N   0  0  0  0  0  0  0  0  0  0  0  0
  147.3680  156.8160  132.9580 C   0  0  0  0  0  0  0  0  0  0  0  0
  147.3480  156.1880  131.8640 O   0  0  0  0  0  0  0  0  0  0  0  0
  147.7050  156.1580  134.1470 O   0  0  0  0  0  0  0  0  0  0  0  0
  147.3900  154.7920  134.4040 C   0  0  0  0  0  0  0  0  0  0  0  0
  146.9760  154.6000  135.8620 C   0  0  0  0  0  0  0  0  0  0  0  0
  148.1120  154.7400  136.6820 O   0  0  0  0  0  0  0  0  0  0  0  0
  147.9960  153.6120  137.9560 P   0  0  0  0  0  0  0  0  0  0  0  0
  149.3600  153.0430  138.2730 O   0  0  0  0  0  0  0  0  0  0  0  0
  147.3570  154.3500  139.3390 O   0  0  0  0  0  0  0  0  0  0  0  0
  146.9690  152.3540  137.4830 O   0  0  0  0  0  0  0  0  0  0  0  0
  149.2800  157.0980  131.4960 H   0  0  0  0  0  0  0  0  0  0  0  0
  147.6890  161.4842  132.8014 H   0  0  0  0  0  0  0  0  0  0  0  0
  145.0243  162.0666  133.6710 H   0  0  0  0  0  0  0  0  0  0  0  0
  142.8765  160.9781  134.4063 H   0  0  0  0  0  0  0  0  0  0  0  0
  142.2560  158.1120  135.6040 H   0  0  0  0  0  0  0  0  0  0  0  0
  141.6590  158.1040  133.9120 H   0  0  0  0  0  0  0  0  0  0  0  0
  144.6642  157.0465  133.8266 H   0  0  0  0  0  0  0  0  0  0  0  0
  146.5618  154.4828  133.7494 H   0  0  0  0  0  0  0  0  0  0  0  0
  148.2817  154.1793  134.2053 H   0  0  0  0  0  0  0  0  0  0  0  0
  146.2274  155.3580  136.1360 H   0  0  0  0  0  0  0  0  0  0  0  0
  146.5409  153.5987  135.9966 H   0  0  0  0  0  0  0  0  0  0  0  0
  1  2  1  0
  2  3  2  0
  2  4  1  0
  4  5  2  0
  5  6  1  0
  6  7  2  0
  7  8  1  0
  8  9  2  0
  9 10  1  0
  9 11  1  0
 11 12  2  0
 12 13  1  0
 13 14  1  0
 14 15  2  0
 14 16  1  0
 16 17  1  0
 17 18  1  0
 18 19  1  0
 19 20  1  0
 20 21  2  0
 20 22  1  0
 20 23  1  0
 13  4  1  0
 12  6  1  0
  1 24  1  0
  5 25  1  0
  7 26  1  0
  8 27  1  0
 10 28  1  0
 10 29  1  0
 11 30  1  0
 17 31  1  0
 17 32  1  0
 18 33  1  0
 18 34  1  0
M  CHG  3   1  -1  22  -1  23  -1
M  END
>  <UniqueID>  (38) 
37

>  <SMILES>  (38) 
[NH-]C(=O)c1cc2ccc(N)cc2n1C(=O)OCCOP(=O)([O-])[O-]

>  <Energy>  (38) 
67.88761430450916

>  <Genealogy>  (38) 
[NH-]C(=O)c1cc2ccc(N)cc2n1C(=O)OCCOP(=O)([O-])[O-] (protonated)
[NH-]C(=O)c1cc2ccc(N)cc2n1C(=O)OCCOP(=O)([O-])[O-] (3D coordinates assigned)
[NH-]C(=O)c1cc2ccc(N)cc2n1C(=O)OCCOP(=O)([O-])[O-] (optimized conformer: 67.88761430450916 kcal/mol)

>  <smiles>  (38) 
NC(=O)c1cc2ccc(N)cc2n1C(=O)OCCOP(=O)(O)O

>  <score_type>  (38) 
oracle

>  <origin>  (38) 
adg

>  <m_score__min__energy>  (38) 
-6.0700000000000003

>  <m_primary>  (38) 
energy

$$$$
40:0
     RDKit          3D

 43 45  0  0  0  0  0  0  0  0999 V2000
  142.9520  160.7480  133.7600 N   0  0  0  0  0  0  0  0  0  0  0  0
  144.3490  160.9100  133.9950 C   0  0  0  0  0  0  0  0  0  0  0  0
  144.7710  161.9910  134.4840 O   0  0  0  0  0  0  0  0  0  0  0  0
  145.2780  159.7970  133.7010 C   0  0  0  0  0  0  0  0  0  0  0  0
  146.6540  159.9640  133.5610 C   0  0  0  0  0  0  0  0  0  0  0  0
  147.1380  158.7270  133.2010 C   0  0  0  0  0  0  0  0  0  0  0  0
  148.4410  158.3190  132.9320 C   0  0  0  0  0  0  0  0  0  0  0  0
  148.6520  156.9720  132.5970 C   0  0  0  0  0  0  0  0  0  0  0  0
  147.5690  156.0550  132.5540 C   0  0  0  0  0  0  0  0  0  0  0  0
  147.7920  154.6820  132.1860 N   0  0  0  0  0  0  0  0  0  0  0  0
  148.7360  154.0780  133.1360 C   0  0  0  0  0  0  0  0  0  0  0  0
  148.4620  152.6100  133.4310 C   0  0  0  0  0  0  0  0  0  0  0  0
  149.6450  153.0020  132.5560 C   0  0  0  0  0  0  0  0  0  0  0  0
  146.2580  156.5120  132.8270 C   0  0  0  0  0  0  0  0  0  0  0  0
  146.0740  157.8650  133.1380 C   0  0  0  0  0  0  0  0  0  0  0  0
  144.9260  158.5060  133.4440 N   0  0  0  0  0  0  0  0  0  0  0  0
  143.6180  157.9140  133.5210 C   0  0  0  0  0  0  0  0  0  0  0  0
  142.7640  158.1610  132.6260 O   0  0  0  0  0  0  0  0  0  0  0  0
  143.2920  157.0940  134.6060 O   0  0  0  0  0  0  0  0  0  0  0  0
  141.9950  156.5420  134.8230 C   0  0  0  0  0  0  0  0  0  0  0  0
  140.9920  157.6430  135.2040 C   0  0  2  0  0  0  0  0  0  0  0  0
  140.7500  158.5040  134.1190 O   0  0  0  0  0  0  0  0  0  0  0  0
  141.4790  158.4380  136.4290 C   0  0  0  0  0  0  0  0  0  0  0  0
  142.4640  159.3620  136.0540 O   0  0  0  0  0  0  0  0  0  0  0  0
  142.4750  159.8430  133.9640 H   0  0  0  0  0  0  0  0  0  0  0  0
  147.2314  160.8888  133.7072 H   0  0  0  0  0  0  0  0  0  0  0  0
  149.2793  159.0296  132.9803 H   0  0  0  0  0  0  0  0  0  0  0  0
  149.6690  156.6228  132.3650 H   0  0  0  0  0  0  0  0  0  0  0  0
  148.1300  154.6330  131.1960 H   0  0  0  0  0  0  0  0  0  0  0  0
  146.8910  154.1530  132.2350 H   0  0  0  0  0  0  0  0  0  0  0  0
  148.8986  154.9852  133.7364 H   0  0  0  0  0  0  0  0  0  0  0  0
  148.6339  152.2108  134.4415 H   0  0  0  0  0  0  0  0  0  0  0  0
  147.5960  151.9418  133.3141 H   0  0  0  0  0  0  0  0  0  0  0  0
  150.6714  152.8863  132.9344 H   0  0  0  0  0  0  0  0  0  0  0  0
  149.9876  152.7347  131.5455 H   0  0  0  0  0  0  0  0  0  0  0  0
  145.4031  155.8205  132.7957 H   0  0  0  0  0  0  0  0  0  0  0  0
  141.6547  156.0468  133.9016 H   0  0  0  0  0  0  0  0  0  0  0  0
  142.0532  155.8163  135.6476 H   0  0  0  0  0  0  0  0  0  0  0  0
  140.0442  157.1522  135.4701 H   0  0  0  0  0  0  0  0  0  0  0  0
  141.5050  159.1460  134.0720 H   0  0  0  0  0  0  0  0  0  0  0  0
  140.6284  158.9758  136.8732 H   0  0  0  0  0  0  0  0  0  0  0  0
  141.9081  157.7374  137.1605 H   0  0  0  0  0  0  0  0  0  0  0  0
  142.6770  159.1780  135.1020 H   0  0  0  0  0  0  0  0  0  0  0  0
  1  2  1  0
  2  3  2  0
  2  4  1  0
  4  5  2  0
  5  6  1  0
  6  7  2  0
  7  8  1  0
  8  9  2  0
  9 10  1  0
 10 11  1  0
 11 12  1  0
 12 13  1  0
  9 14  1  0
 14 15  2  0
 15 16  1  0
 16 17  1  0
 17 18  2  0
 17 19  1  0
 19 20  1  0
 20 21  1  0
 21 22  1  0
 21 23  1  0
 23 24  1  0
 16  4  1  0
 15  6  1  0
 13 11  1  0
  1 25  1  0
  5 26  1  0
  7 27  1  0
  8 28  1  0
 10 29  1  0
 10 30  1  0
 11 31  1  0
 12 32  1  0
 12 33  1  0
 13 34  1  0
 13 35  1  0
 14 36  1  0
 20 37  1  0
 20 38  1  0
 21 39  1  1
 22 40  1  0
 23 41  1  0
 23 42  1  0
 24 43  1  0
M  CHG  2   1  -1  10   1
M  END
>  <UniqueID>  (39) 
38

>  <SMILES>  (39) 
[NH-]C(=O)c1cc2ccc([NH2+]C3CC3)cc2n1C(=O)OC[C@H](O)CO

>  <Energy>  (39) 
344.7397828970904

>  <Genealogy>  (39) 
[NH-]C(=O)c1cc2ccc([NH2+]C3CC3)cc2n1C(=O)OCC(O)CO (protonated)
[NH-]C(=O)c1cc2ccc([NH2+]C3CC3)cc2n1C(=O)OC[C@H](O)CO (chirality)
[NH-]C(=O)c1cc2ccc([NH2+]C3CC3)cc2n1C(=O)OC[C@H](O)CO (3D coordinates assigned)
[NH-]C(=O)c1cc2ccc([NH2+]C3CC3)cc2n1C(=O)OC[C@H](O)CO (nonaromatic ring conformer: 344.7397828970904 kcal/mol)

>  <smiles>  (39) 
NC(=O)c1cc2ccc(NC3CC3)cc2n1C(=O)OCC(O)CO

>  <score_type>  (39) 
oracle

>  <origin>  (39) 
adg

>  <m_score__min__energy>  (39) 
-5.6100000000000003

>  <m_primary>  (39) 
energy

$$$$
41:0
     RDKit          3D

 41 43  0  0  0  0  0  0  0  0999 V2000
  145.8310  160.4210  133.2060 N   0  0  0  0  0  0  0  0  0  0  0  0
  144.6200  160.3360  133.9570 C   0  0  0  0  0  0  0  0  0  0  0  0
  144.3610  161.2220  134.8140 O   0  0  0  0  0  0  0  0  0  0  0  0
  143.6980  159.1940  133.7930 C   0  0  0  0  0  0  0  0  0  0  0  0
  142.3130  159.3150  133.8440 C   0  0  0  0  0  0  0  0  0  0  0  0
  141.8310  158.0330  133.7150 C   0  0  0  0  0  0  0  0  0  0  0  0
  140.5190  157.5680  133.6850 C   0  0  0  0  0  0  0  0  0  0  0  0
  140.3110  156.1900  133.5030 C   0  0  0  0  0  0  0  0  0  0  0  0
  141.4110  155.3170  133.3470 C   0  0  0  0  0  0  0  0  0  0  0  0
  141.1850  153.9090  133.1450 C   0  0  0  0  0  0  0  0  0  0  0  0
  140.9960  152.7310  132.9760 C   0  0  0  0  0  0  0  0  0  0  0  0
  140.7710  151.3250  132.7760 C   0  0  0  0  0  0  0  0  0  0  0  0
  139.5880  150.8740  132.1780 C   0  0  0  0  0  0  0  0  0  0  0  0
  139.3840  149.5060  131.9890 C   0  0  0  0  0  0  0  0  0  0  0  0
  140.3680  148.6030  132.4030 C   0  0  0  0  0  0  0  0  0  0  0  0
  141.5100  149.0600  132.9840 N   0  0  0  0  0  0  0  0  0  0  0  0
  141.7320  150.3880  133.1770 C   0  0  0  0  0  0  0  0  0  0  0  0
  142.7280  155.8160  133.3790 C   0  0  0  0  0  0  0  0  0  0  0  0
  142.9080  157.1900  133.5830 C   0  0  0  0  0  0  0  0  0  0  0  0
  144.0630  157.8910  133.6260 N   0  0  0  0  0  0  0  0  0  0  0  0
  145.3880  157.3750  133.4180 C   0  0  0  0  0  0  0  0  0  0  0  0
  145.5590  156.3610  132.6860 O   0  0  0  0  0  0  0  0  0  0  0  0
  146.4810  157.9900  134.0390 O   0  0  0  0  0  0  0  0  0  0  0  0
  147.8050  157.4630  134.0180 C   0  0  0  0  0  0  0  0  0  0  0  0
  148.5810  157.9830  132.8100 C   0  0  0  0  0  0  0  0  0  0  0  0
  147.6950  158.4360  131.8240 O   0  0  0  0  0  0  0  0  0  0  0  0
  146.1610  159.6210  132.6220 H   0  0  0  0  0  0  0  0  0  0  0  0
  146.4510  161.2560  133.3040 H   0  0  0  0  0  0  0  0  0  0  0  0
  141.7279  160.2390  133.9623 H   0  0  0  0  0  0  0  0  0  0  0  0
  139.6705  158.2585  133.8003 H   0  0  0  0  0  0  0  0  0  0  0  0
  139.2869  155.7892  133.4819 H   0  0  0  0  0  0  0  0  0  0  0  0
  138.8217  151.5954  131.8581 H   0  0  0  0  0  0  0  0  0  0  0  0
  138.4584  149.1421  131.5191 H   0  0  0  0  0  0  0  0  0  0  0  0
  140.2186  147.5228  132.2589 H   0  0  0  0  0  0  0  0  0  0  0  0
  142.6666  150.7263  133.6482 H   0  0  0  0  0  0  0  0  0  0  0  0
  143.5903  155.1458  133.2475 H   0  0  0  0  0  0  0  0  0  0  0  0
  148.3270  157.7646  134.9381 H   0  0  0  0  0  0  0  0  0  0  0  0
  147.7452  156.3667  133.9511 H   0  0  0  0  0  0  0  0  0  0  0  0
  149.2296  158.8137  133.1250 H   0  0  0  0  0  0  0  0  0  0  0  0
  149.1908  157.1662  132.3965 H   0  0  0  0  0  0  0  0  0  0  0  0
  146.8960  157.8490  131.8810 H   0  0  0  0  0  0  0  0  0  0  0  0
  1  2  1  0
  2  3  2  0
  2  4  1  0
  4  5  2  0
  5  6  1  0
  6  7  2  0
  7  8  1  0
  8  9  2  0
  9 10  1  0
 10 11  3  0
 11 12  1  0
 12 13  2  0
 13 14  1  0
 14 15  2  0
 15 16  1  0
 16 17  2  0
  9 18  1  0
 18 19  2  0
 19 20  1  0
 20 21  1  0
 21 22  2  0
 21 23  1  0
 23 24  1  0
 24 25  1  0
 25 26  1  0
 20  4  1  0
 19  6  1  0
 17 12  1  0
  1 27  1  0
  1 28  1  0
  5 29  1  0
  7 30  1  0
  8 31  1  0
 13 32  1  0
 14 33  1  0
 15 34  1  0
 17 35  1  0
 18 36  1  0
 24 37  1  0
 24 38  1  0
 25 39  1  0
 25 40  1  0
 26 41  1  0
M  END
>  <UniqueID>  (40) 
39

>  <SMILES>  (40) 
NC(=O)c1cc2ccc(C#Cc3cccnc3)cc2n1C(=O)OCCO

>  <Energy>  (40) 
76.45530809426336

>  <Genealogy>  (40) 
NC(=O)c1cc2ccc(C#Cc3cccnc3)cc2n1C(=O)OCCO (3D coordinates assigned)
NC(=O)c1cc2ccc(C#Cc3cccnc3)cc2n1C(=O)OCCO (optimized conformer: 76.45530809426336 kcal/mol)

>  <smiles>  (40) 
NC(=O)c1cc2ccc(C#Cc3cccnc3)cc2n1C(=O)OCCO

>  <score_type>  (40) 
oracle

>  <origin>  (40) 
adg

>  <m_score__min__energy>  (40) 
-8.0800000000000001

>  <m_primary>  (40) 
energy

$$$$
42:0
     RDKit          3D

 31 32  0  0  0  0  0  0  0  0999 V2000
  144.0870  162.9300  133.7000 C   0  0  0  0  0  0  0  0  0  0  0  0
  144.2430  161.4390  133.7140 C   0  0  0  0  0  0  0  0  0  0  0  0
  143.1010  160.6060  133.8110 C   0  0  0  0  0  0  0  0  0  0  0  0
  143.2350  159.2080  133.8480 C   0  0  0  0  0  0  0  0  0  0  0  0
  144.5210  158.6760  133.8110 C   0  0  0  0  0  0  0  0  0  0  0  0
  144.9370  157.3630  133.8050 C   0  0  0  0  0  0  0  0  0  0  0  0
  146.3290  157.4170  133.7410 C   0  0  0  0  0  0  0  0  0  0  0  0
  147.1960  156.2200  133.7420 C   0  0  0  0  0  0  0  0  0  0  0  0
  148.5380  156.3150  133.2670 N   0  0  0  0  0  0  0  0  0  0  0  0
  146.7660  155.1100  134.1490 O   0  0  0  0  0  0  0  0  0  0  0  0
  146.7540  158.7120  133.7180 N   0  0  0  0  0  0  0  0  0  0  0  0
  148.1050  159.1920  133.6320 C   0  0  0  0  0  0  0  0  0  0  0  0
  148.9380  158.8800  134.5250 O   0  0  0  0  0  0  0  0  0  0  0  0
  148.5300  160.0790  132.5000 C   0  0  0  0  0  0  0  0  0  0  0  0
  149.6400  159.1850  131.3700 P   0  0  2  0  0  0  0  0  0  0  0  0
  150.7350  160.1090  130.8890 O   0  0  0  0  0  0  0  0  0  0  0  0
  148.7470  158.6430  130.0410 O   0  0  0  0  0  0  0  0  0  0  0  0
  150.3210  157.8500  132.1580 O   0  0  0  0  0  0  0  0  0  0  0  0
  145.6370  159.4690  133.7530 C   0  0  0  0  0  0  0  0  0  0  0  0
  145.5320  160.8630  133.6930 C   0  0  0  0  0  0  0  0  0  0  0  0
  144.0478  163.3043  134.7336 H   0  0  0  0  0  0  0  0  0  0  0  0
  144.9426  163.3833  133.1780 H   0  0  0  0  0  0  0  0  0  0  0  0
  143.1561  163.1964  133.1780 H   0  0  0  0  0  0  0  0  0  0  0  0
  142.0994  161.0584  133.8578 H   0  0  0  0  0  0  0  0  0  0  0  0
  142.3519  158.5545  133.9044 H   0  0  0  0  0  0  0  0  0  0  0  0
  144.3055  156.4631  133.8427 H   0  0  0  0  0  0  0  0  0  0  0  0
  149.2500  156.8790  133.7810 H   0  0  0  0  0  0  0  0  0  0  0  0
  147.6394  160.4098  131.9456 H   0  0  0  0  0  0  0  0  0  0  0  0
  149.0659  160.9472  132.9111 H   0  0  0  0  0  0  0  0  0  0  0  0
  149.7700  157.7200  132.9700 H   0  0  0  0  0  0  0  0  0  0  0  0
  146.4308  161.4941  133.6310 H   0  0  0  0  0  0  0  0  0  0  0  0
  1  2  1  0
  2  3  2  0
  3  4  1  0
  4  5  2  0
  5  6  1  0
  6  7  2  0
  7  8  1  0
  8  9  1  0
  8 10  2  0
  7 11  1  0
 11 12  1  0
 12 13  2  0
 12 14  1  0
 14 15  1  0
 15 16  2  0
 15 17  1  6
 15 18  1  0
 11 19  1  0
 19 20  2  0
 20  2  1  0
 19  5  1  0
  1 21  1  0
  1 22  1  0
  1 23  1  0
  3 24  1  0
  4 25  1  0
  6 26  1  0
  9 27  1  0
 14 28  1  0
 14 29  1  0
 18 30  1  0
 20 31  1  0
M  CHG  2   9  -1  17  -1
M  END
>  <UniqueID>  (41) 
40

>  <SMILES>  (41) 
Cc1ccc2cc(C([NH-])=O)n(C(=O)C[P@](=O)([O-])O)c2c1

>  <Energy>  (41) 
63.782334520382314

>  <Genealogy>  (41) 
Cc1ccc2cc(C([NH-])=O)n(C(=O)CP(=O)([O-])O)c2c1 (protonated)
Cc1ccc2cc(C([NH-])=O)n(C(=O)C[P@](=O)([O-])O)c2c1 (chirality)
Cc1ccc2cc(C([NH-])=O)n(C(=O)C[P@](=O)([O-])O)c2c1 (3D coordinates assigned)
Cc1ccc2cc(C([NH-])=O)n(C(=O)C[P@](=O)([O-])O)c2c1 (optimized conformer: 63.782334520382314 kcal/mol)

>  <smiles>  (41) 
Cc1ccc2cc(C(N)=O)n(C(=O)CP(=O)(O)O)c2c1

>  <score_type>  (41) 
oracle

>  <origin>  (41) 
adg

>  <m_score__min__energy>  (41) 
-5.8300000000000001

>  <m_primary>  (41) 
energy

$$$$
43:0
     RDKit          3D

 49 50  0  0  0  0  0  0  0  0999 V2000
  150.6050  150.7000  132.2080 C   0  0  0  0  0  0  0  0  0  0  0  0
  149.2620  151.2440  132.4440 N   0  0  0  0  0  0  0  0  0  0  0  0
  148.1220  150.3200  132.5300 C   0  0  0  0  0  0  0  0  0  0  0  0
  149.0370  152.6680  132.3620 C   0  0  0  0  0  0  0  0  0  0  0  0
  149.9200  153.4130  131.8460 O   0  0  0  0  0  0  0  0  0  0  0  0
  147.8150  153.3110  132.9600 C   0  0  0  0  0  0  0  0  0  0  0  0
  147.6500  154.6550  132.4030 N   0  0  0  0  0  0  0  0  0  0  0  0
  146.5950  155.5420  132.8110 C   0  0  0  0  0  0  0  0  0  0  0  0
  145.3660  155.0400  133.3220 C   0  0  0  0  0  0  0  0  0  0  0  0
  144.3530  155.9150  133.7440 C   0  0  0  0  0  0  0  0  0  0  0  0
  144.5890  157.2830  133.6440 C   0  0  0  0  0  0  0  0  0  0  0  0
  143.7940  158.3450  134.0110 C   0  0  0  0  0  0  0  0  0  0  0  0
  144.5380  159.4860  133.7090 C   0  0  0  0  0  0  0  0  0  0  0  0
  144.0040  160.8570  133.8490 C   0  0  0  0  0  0  0  0  0  0  0  0
  144.8670  161.9680  134.1070 N   0  0  0  0  0  0  0  0  0  0  0  0
  142.7680  161.0570  133.6920 O   0  0  0  0  0  0  0  0  0  0  0  0
  145.7490  159.1420  133.1830 N   0  0  0  0  0  0  0  0  0  0  0  0
  146.8380  160.0190  132.8420 C   0  0  0  0  0  0  0  0  0  0  0  0
  147.3000  160.8090  133.7110 O   0  0  0  0  0  0  0  0  0  0  0  0
  147.3590  159.9990  131.5390 O   0  0  0  0  0  0  0  0  0  0  0  0
  148.7500  159.9540  131.1780 C   0  0  0  0  0  0  0  0  0  0  0  0
  149.5930  159.3630  132.3300 C   0  0  0  0  0  0  0  0  0  0  0  0
  149.2610  161.3560  130.8010 C   0  0  0  0  0  0  0  0  0  0  0  0
  148.8710  159.0330  129.9530 C   0  0  0  0  0  0  0  0  0  0  0  0
  145.7640  157.7890  133.1500 C   0  0  0  0  0  0  0  0  0  0  0  0
  146.8010  156.9380  132.7430 C   0  0  0  0  0  0  0  0  0  0  0  0
  151.0949  150.5015  133.1727 H   0  0  0  0  0  0  0  0  0  0  0  0
  150.5260  149.7630  131.6372 H   0  0  0  0  0  0  0  0  0  0  0  0
  151.2004  151.4279  131.6372 H   0  0  0  0  0  0  0  0  0  0  0  0
  147.8848  150.1277  133.5868 H   0  0  0  0  0  0  0  0  0  0  0  0
  147.2485  150.7682  132.0338 H   0  0  0  0  0  0  0  0  0  0  0  0
  148.3796  149.3727  132.0338 H   0  0  0  0  0  0  0  0  0  0  0  0
  146.9283  152.7045  132.7235 H   0  0  0  0  0  0  0  0  0  0  0  0
  147.9323  153.3779  134.0517 H   0  0  0  0  0  0  0  0  0  0  0  0
  148.1020  154.8300  131.4760 H   0  0  0  0  0  0  0  0  0  0  0  0
  145.2077  153.9534  133.3872 H   0  0  0  0  0  0  0  0  0  0  0  0
  143.4018  155.5314  134.1416 H   0  0  0  0  0  0  0  0  0  0  0  0
  142.7860  158.3030  134.4494 H   0  0  0  0  0  0  0  0  0  0  0  0
  145.6730  162.1810  133.4760 H   0  0  0  0  0  0  0  0  0  0  0  0
  149.1599  159.6667  133.2945 H   0  0  0  0  0  0  0  0  0  0  0  0
  149.5941  158.2654  132.2579 H   0  0  0  0  0  0  0  0  0  0  0  0
  150.6252  159.7362  132.2579 H   0  0  0  0  0  0  0  0  0  0  0  0
  149.4697  161.9287  131.7167 H   0  0  0  0  0  0  0  0  0  0  0  0
  150.1831  161.2631  130.2084 H   0  0  0  0  0  0  0  0  0  0  0  0
  148.4954  161.8782  130.2084 H   0  0  0  0  0  0  0  0  0  0  0  0
  149.0075  157.9940  130.2875 H   0  0  0  0  0  0  0  0  0  0  0  0
  147.9555  159.1060  129.3475 H   0  0  0  0  0  0  0  0  0  0  0  0
  149.7365  159.3400  129.3475 H   0  0  0  0  0  0  0  0  0  0  0  0
  147.7544  157.3483  132.3786 H   0  0  0  0  0  0  0  0  0  0  0  0
  1  2  1  0
  2  3  1  0
  2  4  1  0
  4  5  2  0
  4  6  1  0
  6  7  1  0
  7  8  1  0
  8  9  2  0
  9 10  1  0
 10 11  2  0
 11 12  1  0
 12 13  2  0
 13 14  1  0
 14 15  1  0
 14 16  2  0
 13 17  1  0
 17 18  1  0
 18 19  2  0
 18 20  1  0
 20 21  1  0
 21 22  1  0
 21 23  1  0
 21 24  1  0
 17 25  1  0
 25 26  2  0
 26  8  1  0
 25 11  1  0
  1 27  1  0
  1 28  1  0
  1 29  1  0
  3 30  1  0
  3 31  1  0
  3 32  1  0
  6 33  1  0
  6 34  1  0
  7 35  1  0
  9 36  1  0
 10 37  1  0
 12 38  1  0
 15 39  1  0
 22 40  1  0
 22 41  1  0
 22 42  1  0
 23 43  1  0
 23 44  1  0
 23 45  1  0
 24 46  1  0
 24 47  1  0
 24 48  1  0
 26 49  1  0
M  CHG  1  15  -1
M  END
>  <UniqueID>  (42) 
41

>  <SMILES>  (42) 
CN(C)C(=O)CNc1ccc2cc(C([NH-])=O)n(C(=O)OC(C)(C)C)c2c1

>  <Energy>  (42) 
82.83831059049444

>  <Genealogy>  (42) 
CN(C)C(=O)CNc1ccc2cc(C([NH-])=O)n(C(=O)OC(C)(C)C)c2c1 (protonated)
CN(C)C(=O)CNc1ccc2cc(C([NH-])=O)n(C(=O)OC(C)(C)C)c2c1 (3D coordinates assigned)
CN(C)C(=O)CNc1ccc2cc(C([NH-])=O)n(C(=O)OC(C)(C)C)c2c1 (optimized conformer: 82.83831059049444 kcal/mol)

>  <smiles>  (42) 
CN(C)C(=O)CNc1ccc2cc(C(N)=O)n(C(=O)OC(C)(C)C)c2c1

>  <score_type>  (42) 
oracle

>  <origin>  (42) 
adg

>  <m_score__min__energy>  (42) 
-7.8799999999999999

>  <m_primary>  (42) 
energy

$$$$
44:0
     RDKit          3D

 47 48  0  0  0  0  0  0  0  0999 V2000
  139.8570  157.5120  136.7870 C   0  0  0  0  0  0  0  0  0  0  0  0
  140.6950  158.4080  135.8700 C   0  0  0  0  0  0  0  0  0  0  0  0
  140.9720  159.7500  136.5440 C   0  0  0  0  0  0  0  0  0  0  0  0
  140.0050  158.6410  134.6430 O   0  0  0  0  0  0  0  0  0  0  0  0
  140.6440  159.0080  133.4540 C   0  0  0  0  0  0  0  0  0  0  0  0
  140.5850  160.1940  133.0270 O   0  0  0  0  0  0  0  0  0  0  0  0
  141.4000  157.9760  132.6820 C   0  0  0  0  0  0  0  0  0  0  0  0
  142.7800  158.3250  132.6120 O   0  0  0  0  0  0  0  0  0  0  0  0
  143.7040  158.0080  133.6140 C   0  0  0  0  0  0  0  0  0  0  0  0
  143.3600  157.2910  134.5930 O   0  0  0  0  0  0  0  0  0  0  0  0
  145.0410  158.5260  133.5390 N   0  0  0  0  0  0  0  0  0  0  0  0
  145.4490  159.8200  133.6750 C   0  0  0  0  0  0  0  0  0  0  0  0
  144.6050  160.9590  134.0910 C   0  0  0  0  0  0  0  0  0  0  0  0
  143.2280  161.0230  133.7300 N   0  0  0  0  0  0  0  0  0  0  0  0
  145.0940  161.8650  134.8160 O   0  0  0  0  0  0  0  0  0  0  0  0
  146.8190  159.9260  133.4470 C   0  0  0  0  0  0  0  0  0  0  0  0
  147.2450  158.6470  133.1740 C   0  0  0  0  0  0  0  0  0  0  0  0
  148.5160  158.1740  132.8630 C   0  0  0  0  0  0  0  0  0  0  0  0
  148.6620  156.8030  132.5950 C   0  0  0  0  0  0  0  0  0  0  0  0
  147.5400  155.9330  132.6330 C   0  0  0  0  0  0  0  0  0  0  0  0
  147.6950  154.5300  132.3310 N   0  0  0  0  0  0  0  0  0  0  0  0
  148.3380  153.7970  133.4360 C   0  0  0  0  0  0  0  0  0  0  0  0
  149.2520  152.6590  132.9470 C   0  0  0  0  0  0  0  0  0  0  0  0
  149.5990  152.8330  131.6000 O   0  0  0  0  0  0  0  0  0  0  0  0
  146.2650  156.4530  132.9570 C   0  0  0  0  0  0  0  0  0  0  0  0
  146.1530  157.8200  133.2360 C   0  0  0  0  0  0  0  0  0  0  0  0
  140.0805  157.7510  137.8372 H   0  0  0  0  0  0  0  0  0  0  0  0
  138.7884  157.6843  136.5912 H   0  0  0  0  0  0  0  0  0  0  0  0
  140.1003  156.4573  136.5912 H   0  0  0  0  0  0  0  0  0  0  0  0
  141.6472  157.8956  135.6680 H   0  0  0  0  0  0  0  0  0  0  0  0
  140.9460  159.6239  137.6364 H   0  0  0  0  0  0  0  0  0  0  0  0
  141.9644  160.1148  136.2405 H   0  0  0  0  0  0  0  0  0  0  0  0
  140.2052  160.4779  136.2405 H   0  0  0  0  0  0  0  0  0  0  0  0
  141.2968  157.0012  133.1812 H   0  0  0  0  0  0  0  0  0  0  0  0
  140.9920  157.9213  131.6619 H   0  0  0  0  0  0  0  0  0  0  0  0
  142.6340  160.1650  133.7170 H   0  0  0  0  0  0  0  0  0  0  0  0
  147.4309  160.8395  133.4786 H   0  0  0  0  0  0  0  0  0  0  0  0
  149.3805  158.8533  132.8281 H   0  0  0  0  0  0  0  0  0  0  0  0
  149.6560  156.3987  132.3531 H   0  0  0  0  0  0  0  0  0  0  0  0
  148.2950  154.4380  131.4790 H   0  0  0  0  0  0  0  0  0  0  0  0
  146.7710  154.0930  132.1010 H   0  0  0  0  0  0  0  0  0  0  0  0
  148.9419  154.5050  134.0225 H   0  0  0  0  0  0  0  0  0  0  0  0
  147.5390  153.3426  134.0403 H   0  0  0  0  0  0  0  0  0  0  0  0
  150.1684  152.6478  133.5554 H   0  0  0  0  0  0  0  0  0  0  0  0
  148.7091  151.7076  133.0475 H   0  0  0  0  0  0  0  0  0  0  0  0
  150.5840  152.9580  131.5730 H   0  0  0  0  0  0  0  0  0  0  0  0
  145.3818  155.7981  132.9890 H   0  0  0  0  0  0  0  0  0  0  0  0
  1  2  1  0
  2  3  1  0
  2  4  1  0
  4  5  1  0
  5  6  2  0
  5  7  1  0
  7  8  1  0
  8  9  1  0
  9 10  2  0
  9 11  1  0
 11 12  1  0
 12 13  1  0
 13 14  1  0
 13 15  2  0
 12 16  2  0
 16 17  1  0
 17 18  2  0
 18 19  1  0
 19 20  2  0
 20 21  1  0
 21 22  1  0
 22 23  1  0
 23 24  1  0
 20 25  1  0
 25 26  2  0
 26 11  1  0
 26 17  1  0
  1 27  1  0
  1 28  1  0
  1 29  1  0
  2 30  1  0
  3 31  1  0
  3 32  1  0
  3 33  1  0
  7 34  1  0
  7 35  1  0
 14 36  1  0
 16 37  1  0
 18 38  1  0
 19 39  1  0
 21 40  1  0
 21 41  1  0
 22 42  1  0
 22 43  1  0
 23 44  1  0
 23 45  1  0
 24 46  1  0
 25 47  1  0
M  CHG  2  14  -1  21   1
M  END
>  <UniqueID>  (43) 
42

>  <SMILES>  (43) 
CC(C)OC(=O)COC(=O)n1c(C([NH-])=O)cc2ccc([NH2+]CCO)cc21

>  <Energy>  (43) 
76.440972641564

>  <Genealogy>  (43) 
CC(C)OC(=O)COC(=O)n1c(C([NH-])=O)cc2ccc([NH2+]CCO)cc21 (protonated)
CC(C)OC(=O)COC(=O)n1c(C([NH-])=O)cc2ccc([NH2+]CCO)cc21 (3D coordinates assigned)
CC(C)OC(=O)COC(=O)n1c(C([NH-])=O)cc2ccc([NH2+]CCO)cc21 (optimized conformer: 76.440972641564 kcal/mol)

>  <smiles>  (43) 
CC(C)OC(=O)COC(=O)n1c(C(N)=O)cc2ccc(NCCO)cc21

>  <score_type>  (43) 
oracle

>  <origin>  (43) 
adg

>  <m_score__min__energy>  (43) 
-6.8799999999999999

>  <m_primary>  (43) 
energy

$$$$
45:0
     RDKit          3D

 42 44  0  0  0  0  0  0  0  0999 V2000
  148.9050  157.2960  133.3900 N   0  0  0  0  0  0  0  0  0  0  0  0
  148.4000  158.6130  133.1570 C   0  0  0  0  0  0  0  0  0  0  0  0
  149.2000  159.5250  132.8210 O   0  0  0  0  0  0  0  0  0  0  0  0
  146.9630  158.9150  133.3420 C   0  0  0  0  0  0  0  0  0  0  0  0
  146.4570  160.1990  133.5380 C   0  0  0  0  0  0  0  0  0  0  0  0
  145.0900  160.0520  133.5660 C   0  0  0  0  0  0  0  0  0  0  0  0
  144.0920  161.0040  133.7460 C   0  0  0  0  0  0  0  0  0  0  0  0
  142.7570  160.5660  133.7600 C   0  0  0  0  0  0  0  0  0  0  0  0
  142.4410  159.1910  133.6030 C   0  0  0  0  0  0  0  0  0  0  0  0
  141.0280  158.7370  133.6320 C   0  0  0  0  0  0  0  0  0  0  0  0
  140.4990  158.1230  134.7810 C   0  0  0  0  0  0  0  0  0  0  0  0
  139.1720  157.6930  134.8050 C   0  0  0  0  0  0  0  0  0  0  0  0
  138.3560  157.8690  133.6870 C   0  0  0  0  0  0  0  0  0  0  0  0
  138.8560  158.4780  132.5310 C   0  0  0  0  0  0  0  0  0  0  0  0
  137.9900  158.6310  131.4360 O   0  0  0  0  0  0  0  0  0  0  0  0
  137.7760  159.8440  130.7160 C   0  0  0  0  0  0  0  0  0  0  0  0
  136.4200  160.0860  130.5840 F   0  0  0  0  0  0  0  0  0  0  0  0
  138.3650  159.7660  129.4660 F   0  0  0  0  0  0  0  0  0  0  0  0
  138.3490  160.8880  131.4150 F   0  0  0  0  0  0  0  0  0  0  0  0
  140.1970  158.9140  132.5090 C   0  0  0  0  0  0  0  0  0  0  0  0
  143.4870  158.2550  133.4230 C   0  0  0  0  0  0  0  0  0  0  0  0
  144.8060  158.7230  133.3930 C   0  0  0  0  0  0  0  0  0  0  0  0
  145.9470  158.0100  133.2540 N   0  0  0  0  0  0  0  0  0  0  0  0
  146.0570  156.5840  133.1200 C   0  0  0  0  0  0  0  0  0  0  0  0
  146.7250  156.0890  132.1730 O   0  0  0  0  0  0  0  0  0  0  0  0
  145.4080  155.7490  134.0380 O   0  0  0  0  0  0  0  0  0  0  0  0
  145.8880  154.4550  134.3950 C   0  0  0  0  0  0  0  0  0  0  0  0
  146.9120  154.5600  135.4800 C   0  0  0  0  0  0  0  0  0  0  0  0
  146.9840  153.6770  136.3740 O   0  0  0  0  0  0  0  0  0  0  0  0
  147.7680  155.6530  135.5200 O   0  0  0  0  0  0  0  0  0  0  0  0
  149.9260  157.1040  133.2940 H   0  0  0  0  0  0  0  0  0  0  0  0
  148.2670  156.5030  133.6180 H   0  0  0  0  0  0  0  0  0  0  0  0
  147.0296  161.1318  133.6471 H   0  0  0  0  0  0  0  0  0  0  0  0
  144.3404  162.0680  133.8736 H   0  0  0  0  0  0  0  0  0  0  0  0
  141.9467  161.2977  133.8943 H   0  0  0  0  0  0  0  0  0  0  0  0
  141.1356  157.9808  135.6668 H   0  0  0  0  0  0  0  0  0  0  0  0
  138.7676  157.2135  135.7086 H   0  0  0  0  0  0  0  0  0  0  0  0
  137.3112  157.5262  133.7147 H   0  0  0  0  0  0  0  0  0  0  0  0
  140.5978  159.3971  131.6057 H   0  0  0  0  0  0  0  0  0  0  0  0
  143.2684  157.1830  133.3091 H   0  0  0  0  0  0  0  0  0  0  0  0
  145.0466  153.8412  134.7489 H   0  0  0  0  0  0  0  0  0  0  0  0
  146.3501  153.9896  133.5119 H   0  0  0  0  0  0  0  0  0  0  0  0
  1  2  1  0
  2  3  2  0
  2  4  1  0
  4  5  2  0
  5  6  1  0
  6  7  2  0
  7  8  1  0
  8  9  2  0
  9 10  1  0
 10 11  2  0
 11 12  1  0
 12 13  2  0
 13 14  1  0
 14 15  1  0
 15 16  1  0
 16 17  1  0
 16 18  1  0
 16 19  1  0
 14 20  2  0
  9 21  1  0
 21 22  2  0
 22 23  1  0
 23 24  1  0
 24 25  2  0
 24 26  1  0
 26 27  1  0
 27 28  1  0
 28 29  2  0
 28 30  1  0
 23  4  1  0
 22  6  1  0
 20 10  1  0
  1 31  1  0
  1 32  1  0
  5 33  1  0
  7 34  1  0
  8 35  1  0
 11 36  1  0
 12 37  1  0
 13 38  1  0
 20 39  1  0
 21 40  1  0
 27 41  1  0
 27 42  1  0
M  CHG  1  30  -1
M  END
>  <UniqueID>  (44) 
43

>  <SMILES>  (44) 
NC(=O)c1cc2ccc(-c3cccc(OC(F)(F)F)c3)cc2n1C(=O)OCC(=O)[O-]

>  <Energy>  (44) 
86.23028019760983

>  <Genealogy>  (44) 
NC(=O)c1cc2ccc(-c3cccc(OC(F)(F)F)c3)cc2n1C(=O)OCC(=O)[O-] (protonated)
NC(=O)c1cc2ccc(-c3cccc(OC(F)(F)F)c3)cc2n1C(=O)OCC(=O)[O-] (3D coordinates assigned)
NC(=O)c1cc2ccc(-c3cccc(OC(F)(F)F)c3)cc2n1C(=O)OCC(=O)[O-] (optimized conformer: 86.23028019760983 kcal/mol)

>  <smiles>  (44) 
NC(=O)c1cc2ccc(-c3cccc(OC(F)(F)F)c3)cc2n1C(=O)OCC(=O)O

>  <score_type>  (44) 
oracle

>  <origin>  (44) 
adg

>  <m_score__min__energy>  (44) 
-8.1899999999999995

>  <m_primary>  (44) 
energy

$$$$
46:0
     RDKit          3D

 39 40  0  0  0  0  0  0  0  0999 V2000
  142.7500  155.7750  133.5050 N   0  0  0  0  0  0  0  0  0  0  0  0
  143.9510  155.8620  134.2740 C   0  0  0  0  0  0  0  0  0  0  0  0
  144.0520  155.1900  135.3350 O   0  0  0  0  0  0  0  0  0  0  0  0
  145.0960  156.6710  133.8160 C   0  0  0  0  0  0  0  0  0  0  0  0
  146.4010  156.1880  133.7610 C   0  0  0  0  0  0  0  0  0  0  0  0
  147.1440  157.2110  133.2200 C   0  0  0  0  0  0  0  0  0  0  0  0
  148.5080  157.2810  132.9560 C   0  0  0  0  0  0  0  0  0  0  0  0
  149.0180  158.4800  132.4310 C   0  0  0  0  0  0  0  0  0  0  0  0
  148.1600  159.5790  132.1800 C   0  0  0  0  0  0  0  0  0  0  0  0
  148.7260  160.8740  131.6610 C   0  0  0  0  0  0  0  0  0  0  0  0
  149.5460  160.6340  130.3960 C   0  0  0  0  0  0  0  0  0  0  0  0
  148.9820  159.6050  129.6650 F   0  0  0  0  0  0  0  0  0  0  0  0
  146.7820  159.4780  132.4740 C   0  0  0  0  0  0  0  0  0  0  0  0
  146.2980  158.2630  132.9770 C   0  0  0  0  0  0  0  0  0  0  0  0
  145.0340  157.9480  133.3430 N   0  0  0  0  0  0  0  0  0  0  0  0
  143.8950  158.8240  133.3350 C   0  0  0  0  0  0  0  0  0  0  0  0
  144.0470  160.0570  133.5550 O   0  0  0  0  0  0  0  0  0  0  0  0
  142.6220  158.3080  133.0780 O   0  0  0  0  0  0  0  0  0  0  0  0
  141.4420  158.8320  133.6770 C   0  0  0  0  0  0  0  0  0  0  0  0
  140.2910  158.8150  132.6690 C   0  0  0  0  0  0  0  0  0  0  0  0
  139.5940  157.4520  132.5910 C   0  0  0  0  0  0  0  0  0  0  0  0
  140.5280  156.4090  132.6830 O   0  0  0  0  0  0  0  0  0  0  0  0
  141.9360  155.2300  133.8630 H   0  0  0  0  0  0  0  0  0  0  0  0
  142.6960  156.1790  132.5440 H   0  0  0  0  0  0  0  0  0  0  0  0
  146.7607  155.1992  134.0818 H   0  0  0  0  0  0  0  0  0  0  0  0
  149.1676  156.4230  133.1525 H   0  0  0  0  0  0  0  0  0  0  0  0
  150.0927  158.5663  132.2129 H   0  0  0  0  0  0  0  0  0  0  0  0
  147.8999  161.5630  131.4309 H   0  0  0  0  0  0  0  0  0  0  0  0
  149.3809  161.3082  132.4308 H   0  0  0  0  0  0  0  0  0  0  0  0
  149.5580  161.5508  129.7883 H   0  0  0  0  0  0  0  0  0  0  0  0
  150.5751  160.3626  130.6742 H   0  0  0  0  0  0  0  0  0  0  0  0
  146.1065  160.3309  132.3123 H   0  0  0  0  0  0  0  0  0  0  0  0
  141.1721  158.2173  134.5484 H   0  0  0  0  0  0  0  0  0  0  0  0
  141.6283  159.8685  133.9946 H   0  0  0  0  0  0  0  0  0  0  0  0
  139.5509  159.5723  132.9669 H   0  0  0  0  0  0  0  0  0  0  0  0
  140.7147  159.0291  131.6767 H   0  0  0  0  0  0  0  0  0  0  0  0
  138.8752  157.3666  133.4193 H   0  0  0  0  0  0  0  0  0  0  0  0
  139.0748  157.3762  131.6242 H   0  0  0  0  0  0  0  0  0  0  0  0
  141.3570  156.7250  132.2370 H   0  0  0  0  0  0  0  0  0  0  0  0
  1  2  1  0
  2  3  2  0
  2  4  1  0
  4  5  2  0
  5  6  1  0
  6  7  2  0
  7  8  1  0
  8  9  2  0
  9 10  1  0
 10 11  1  0
 11 12  1  0
  9 13  1  0
 13 14  2  0
 14 15  1  0
 15 16  1  0
 16 17  2  0
 16 18  1  0
 18 19  1  0
 19 20  1  0
 20 21  1  0
 21 22  1  0
 15  4  1  0
 14  6  1  0
  1 23  1  0
  1 24  1  0
  5 25  1  0
  7 26  1  0
  8 27  1  0
 10 28  1  0
 10 29  1  0
 11 30  1  0
 11 31  1  0
 13 32  1  0
 19 33  1  0
 19 34  1  0
 20 35  1  0
 20 36  1  0
 21 37  1  0
 21 38  1  0
 22 39  1  0
M  END
>  <UniqueID>  (45) 
44

>  <SMILES>  (45) 
NC(=O)c1cc2ccc(CCF)cc2n1C(=O)OCCCO

>  <Energy>  (45) 
68.68818780024294

>  <Genealogy>  (45) 
NC(=O)c1cc2ccc(CCF)cc2n1C(=O)OCCCO (3D coordinates assigned)
NC(=O)c1cc2ccc(CCF)cc2n1C(=O)OCCCO (optimized conformer: 68.68818780024294 kcal/mol)

>  <smiles>  (45) 
NC(=O)c1cc2ccc(CCF)cc2n1C(=O)OCCCO

>  <score_type>  (45) 
oracle

>  <origin>  (45) 
adg

>  <m_score__min__energy>  (45) 
-6.3099999999999996

>  <m_primary>  (45) 
energy

$$$$
47:0
     RDKit          3D

 58 61  0  0  0  0  0  0  0  0999 V2000
  142.1450  157.1200  139.8040 C   0  0  0  0  0  0  0  0  0  0  0  0
  141.3730  157.6140  138.7160 O   0  0  0  0  0  0  0  0  0  0  0  0
  140.7090  156.7730  137.8170 C   0  0  0  0  0  0  0  0  0  0  0  0
  140.1540  155.7180  138.2320 O   0  0  0  0  0  0  0  0  0  0  0  0
  140.6620  157.1110  136.4180 N   0  0  0  0  0  0  0  0  0  0  0  0
  141.2070  156.1460  135.4330 C   0  0  0  0  0  0  0  0  0  0  0  0
  140.9320  156.5810  133.9770 C   0  0  1  0  0  0  0  0  0  0  0  0
  139.4430  156.4430  133.6500 C   0  0  0  0  0  0  0  0  0  0  0  0
  138.8420  157.7960  134.0260 C   0  0  0  0  0  0  0  0  0  0  0  0
  140.0330  158.6250  134.5190 C   0  0  1  0  0  0  0  0  0  0  0  0
  140.2050  158.4710  136.0430 C   0  0  0  0  0  0  0  0  0  0  0  0
  141.1880  158.0090  133.8860 N   0  0  0  0  0  0  0  0  0  0  0  0
  142.4990  158.6200  133.7680 C   0  0  0  0  0  0  0  0  0  0  0  0
  142.6490  160.0330  133.8580 C   0  0  0  0  0  0  0  0  0  0  0  0
  143.9110  160.6380  133.7330 C   0  0  0  0  0  0  0  0  0  0  0  0
  145.0100  159.8170  133.5230 C   0  0  0  0  0  0  0  0  0  0  0  0
  146.3350  160.1420  133.3410 C   0  0  0  0  0  0  0  0  0  0  0  0
  146.9910  158.9260  133.1560 C   0  0  0  0  0  0  0  0  0  0  0  0
  148.4560  158.8040  133.0040 C   0  0  0  0  0  0  0  0  0  0  0  0
  149.0070  158.4010  131.7520 N   0  0  0  0  0  0  0  0  0  0  0  0
  149.2290  159.0870  133.9560 O   0  0  0  0  0  0  0  0  0  0  0  0
  146.1040  157.8930  133.2150 N   0  0  0  0  0  0  0  0  0  0  0  0
  146.3710  156.4970  133.0030 C   0  0  0  0  0  0  0  0  0  0  0  0
  147.2900  156.1520  132.2130 O   0  0  0  0  0  0  0  0  0  0  0  0
  145.6180  155.5380  133.6970 O   0  0  0  0  0  0  0  0  0  0  0  0
  144.8690  154.4610  133.1170 C   0  0  0  0  0  0  0  0  0  0  0  0
  145.8190  153.2600  132.9990 C   0  0  0  0  0  0  0  0  0  0  0  0
  143.6850  154.0730  134.0230 C   0  0  0  0  0  0  0  0  0  0  0  0
  144.3730  154.8430  131.7090 C   0  0  0  0  0  0  0  0  0  0  0  0
  144.8960  158.4550  133.4410 C   0  0  0  0  0  0  0  0  0  0  0  0
  143.6510  157.8260  133.5390 C   0  0  0  0  0  0  0  0  0  0  0  0
  141.6759  157.4202  140.7526 H   0  0  0  0  0  0  0  0  0  0  0  0
  142.1939  156.0224  139.7503 H   0  0  0  0  0  0  0  0  0  0  0  0
  143.1621  157.5354  139.7503 H   0  0  0  0  0  0  0  0  0  0  0  0
  142.2943  156.0661  135.5795 H   0  0  0  0  0  0  0  0  0  0  0  0
  140.7090  155.1789  135.5964 H   0  0  0  0  0  0  0  0  0  0  0  0
  141.5532  155.9678  133.3076 H   0  0  0  0  0  0  0  0  0  0  0  0
  139.2975  156.2369  132.5793 H   0  0  0  0  0  0  0  0  0  0  0  0
  138.9710  155.6104  134.1922 H   0  0  0  0  0  0  0  0  0  0  0  0
  138.3748  158.2702  133.1503 H   0  0  0  0  0  0  0  0  0  0  0  0
  138.0536  157.7049  134.7877 H   0  0  0  0  0  0  0  0  0  0  0  0
  139.9038  159.6924  134.2867 H   0  0  0  0  0  0  0  0  0  0  0  0
  140.9477  159.2036  136.3920 H   0  0  0  0  0  0  0  0  0  0  0  0
  139.2253  158.6409  136.5134 H   0  0  0  0  0  0  0  0  0  0  0  0
  141.7623  160.6614  134.0282 H   0  0  0  0  0  0  0  0  0  0  0  0
  144.0245  161.7301  133.7996 H   0  0  0  0  0  0  0  0  0  0  0  0
  146.7813  161.1474  133.3414 H   0  0  0  0  0  0  0  0  0  0  0  0
  148.7570  157.4800  131.3270 H   0  0  0  0  0  0  0  0  0  0  0  0
  146.0952  152.9108  134.0048 H   0  0  0  0  0  0  0  0  0  0  0  0
  145.3167  152.4473  132.4538 H   0  0  0  0  0  0  0  0  0  0  0  0
  146.7255  153.5617  132.4538 H   0  0  0  0  0  0  0  0  0  0  0  0
  143.9828  154.1706  135.0774 H   0  0  0  0  0  0  0  0  0  0  0  0
  142.8337  154.7392  133.8192 H   0  0  0  0  0  0  0  0  0  0  0  0
  143.3931  153.0322  133.8192 H   0  0  0  0  0  0  0  0  0  0  0  0
  143.5042  155.5121  131.7953 H   0  0  0  0  0  0  0  0  0  0  0  0
  145.1784  155.3564  131.1633 H   0  0  0  0  0  0  0  0  0  0  0  0
  144.0823  153.9332  131.1633 H   0  0  0  0  0  0  0  0  0  0  0  0
  143.5669  156.7337  133.4401 H   0  0  0  0  0  0  0  0  0  0  0  0
  1  2  1  0
  2  3  1  0
  3  4  2  0
  3  5  1  0
  5  6  1  0
  6  7  1  0
  7  8  1  0
  8  9  1  0
  9 10  1  0
 10 11  1  0
 10 12  1  0
 12 13  1  0
 13 14  2  0
 14 15  1  0
 15 16  2  0
 16 17  1  0
 17 18  2  0
 18 19  1  0
 19 20  1  0
 19 21  2  0
 18 22  1  0
 22 23  1  0
 23 24  2  0
 23 25  1  0
 25 26  1  0
 26 27  1  0
 26 28  1  0
 26 29  1  0
 22 30  1  0
 30 31  2  0
 11  5  1  0
 31 13  1  0
 12  7  1  0
 30 16  1  0
  1 32  1  0
  1 33  1  0
  1 34  1  0
  6 35  1  0
  6 36  1  0
  7 37  1  6
  8 38  1  0
  8 39  1  0
  9 40  1  0
  9 41  1  0
 10 42  1  1
 11 43  1  0
 11 44  1  0
 14 45  1  0
 15 46  1  0
 17 47  1  0
 20 48  1  0
 27 49  1  0
 27 50  1  0
 27 51  1  0
 28 52  1  0
 28 53  1  0
 28 54  1  0
 29 55  1  0
 29 56  1  0
 29 57  1  0
 31 58  1  0
M  CHG  1  20  -1
M  END
>  <UniqueID>  (46) 
45

>  <SMILES>  (46) 
COC(=O)N1C[C@H]2CC[C@@H](C1)N2c1ccc2cc(C([NH-])=O)n(C(=O)OC(C)(C)C)c2c1

>  <Energy>  (46) 
107.54497497617523

>  <Genealogy>  (46) 
COC(=O)N1CC2CCC(C1)N2c1ccc2cc(C([NH-])=O)n(C(=O)OC(C)(C)C)c2c1 (protonated)
COC(=O)N1C[C@H]2CC[C@@H](C1)N2c1ccc2cc(C([NH-])=O)n(C(=O)OC(C)(C)C)c2c1 (chirality)
COC(=O)N1C[C@H]2CC[C@@H](C1)N2c1ccc2cc(C([NH-])=O)n(C(=O)OC(C)(C)C)c2c1 (3D coordinates assigned)
COC(=O)N1C[C@H]2CC[C@@H](C1)N2c1ccc2cc(C([NH-])=O)n(C(=O)OC(C)(C)C)c2c1 (nonaromatic ring conformer: 107.54497497617523 kcal/mol)

>  <smiles>  (46) 
COC(=O)N1CC2CCC(C1)N2c1ccc2cc(C(N)=O)n(C(=O)OC(C)(C)C)c2c1

>  <score_type>  (46) 
oracle

>  <origin>  (46) 
adg

>  <m_score__min__energy>  (46) 
-8.7400000000000002

>  <m_primary>  (46) 
energy

$$$$
48:0
     RDKit          3D

 37 38  0  0  0  0  0  0  0  0999 V2000
  139.0650  158.0630  134.0580 C   0  0  0  0  0  0  0  0  0  0  0  0
  139.9720  158.8740  133.2360 N   0  0  0  0  0  0  0  0  0  0  0  0
  139.4280  159.9930  132.4470 C   0  0  0  0  0  0  0  0  0  0  0  0
  139.0580  159.5540  131.0150 C   0  0  1  0  0  0  0  0  0  0  0  0
  138.6470  158.2110  131.0240 O   0  0  0  0  0  0  0  0  0  0  0  0
  137.9390  160.4150  130.4120 C   0  0  0  0  0  0  0  0  0  0  0  0
  136.6780  159.8480  130.6550 O   0  0  0  0  0  0  0  0  0  0  0  0
  141.3850  158.5660  133.2240 C   0  0  0  0  0  0  0  0  0  0  0  0
  141.8240  157.2270  133.0390 C   0  0  0  0  0  0  0  0  0  0  0  0
  143.1920  156.9080  133.0470 C   0  0  0  0  0  0  0  0  0  0  0  0
  144.1020  157.9420  133.2320 C   0  0  0  0  0  0  0  0  0  0  0  0
  145.4750  157.9080  133.3110 C   0  0  0  0  0  0  0  0  0  0  0  0
  145.8670  159.2290  133.5140 C   0  0  0  0  0  0  0  0  0  0  0  0
  147.2810  159.6550  133.5730 C   0  0  0  0  0  0  0  0  0  0  0  0
  147.7300  160.8080  132.8650 N   0  0  0  0  0  0  0  0  0  0  0  0
  148.1130  158.9660  134.2200 O   0  0  0  0  0  0  0  0  0  0  0  0
  144.7780  160.0480  133.5690 N   0  0  0  0  0  0  0  0  0  0  0  0
  144.7460  161.4560  133.8500 C   0  0  0  0  0  0  0  0  0  0  0  0
  145.6940  162.0010  134.4750 O   0  0  0  0  0  0  0  0  0  0  0  0
  143.6590  162.2260  133.4550 O   0  0  0  0  0  0  0  0  0  0  0  0
  143.7050  159.2440  133.3910 C   0  0  0  0  0  0  0  0  0  0  0  0
  142.3480  159.5890  133.4050 C   0  0  0  0  0  0  0  0  0  0  0  0
  139.2713  158.2475  135.1226 H   0  0  0  0  0  0  0  0  0  0  0  0
  138.0235  158.3365  133.8336 H   0  0  0  0  0  0  0  0  0  0  0  0
  139.2208  156.9975  133.8336 H   0  0  0  0  0  0  0  0  0  0  0  0
  138.5261  160.3763  132.9467 H   0  0  0  0  0  0  0  0  0  0  0  0
  140.2014  160.7721  132.3780 H   0  0  0  0  0  0  0  0  0  0  0  0
  139.9560  159.6814  130.3926 H   0  0  0  0  0  0  0  0  0  0  0  0
  137.9420  158.1220  130.3300 H   0  0  0  0  0  0  0  0  0  0  0  0
  137.9748  161.4178  130.8627 H   0  0  0  0  0  0  0  0  0  0  0  0
  138.0915  160.4742  129.3242 H   0  0  0  0  0  0  0  0  0  0  0  0
  136.7220  158.9050  130.3490 H   0  0  0  0  0  0  0  0  0  0  0  0
  141.0821  156.4292  132.8874 H   0  0  0  0  0  0  0  0  0  0  0  0
  143.5327  155.8710  132.9109 H   0  0  0  0  0  0  0  0  0  0  0  0
  146.1255  157.0246  133.2308 H   0  0  0  0  0  0  0  0  0  0  0  0
  147.2370  161.7220  132.9600 H   0  0  0  0  0  0  0  0  0  0  0  0
  142.0361  160.6333  133.5535 H   0  0  0  0  0  0  0  0  0  0  0  0
  1  2  1  0
  2  3  1  0
  3  4  1  0
  4  5  1  0
  4  6  1  0
  6  7  1  0
  2  8  1  0
  8  9  2  0
  9 10  1  0
 10 11  2  0
 11 12  1  0
 12 13  2  0
 13 14  1  0
 14 15  1  0
 14 16  2  0
 13 17  1  0
 17 18  1  0
 18 19  2  0
 18 20  1  0
 17 21  1  0
 21 22  2  0
 22  8  1  0
 21 11  1  0
  1 23  1  0
  1 24  1  0
  1 25  1  0
  3 26  1  0
  3 27  1  0
  4 28  1  6
  5 29  1  0
  6 30  1  0
  6 31  1  0
  7 32  1  0
  9 33  1  0
 10 34  1  0
 12 35  1  0
 15 36  1  0
 22 37  1  0
M  CHG  2  15  -1  20  -1
M  END
>  <UniqueID>  (47) 
46

>  <SMILES>  (47) 
CN(C[C@@H](O)CO)c1ccc2cc(C([NH-])=O)n(C(=O)[O-])c2c1

>  <Energy>  (47) 
75.8404134992277

>  <Genealogy>  (47) 
CN(CC(O)CO)c1ccc2cc(C([NH-])=O)n(C(=O)[O-])c2c1 (protonated)
CN(C[C@@H](O)CO)c1ccc2cc(C([NH-])=O)n(C(=O)[O-])c2c1 (chirality)
CN(C[C@@H](O)CO)c1ccc2cc(C([NH-])=O)n(C(=O)[O-])c2c1 (3D coordinates assigned)
CN(C[C@@H](O)CO)c1ccc2cc(C([NH-])=O)n(C(=O)[O-])c2c1 (optimized conformer: 75.8404134992277 kcal/mol)

>  <smiles>  (47) 
CN(CC(O)CO)c1ccc2cc(C(N)=O)n(C(=O)O)c2c1

>  <score_type>  (47) 
oracle

>  <origin>  (47) 
adg

>  <m_score__min__energy>  (47) 
-6.3700000000000001

>  <m_primary>  (47) 
energy

$$$$
49:0
     RDKit          3D

 37 38  0  0  0  0  0  0  0  0999 V2000
  147.6380  151.0770  131.8520 C   0  0  0  0  0  0  0  0  0  0  0  0
  148.8790  151.8680  131.8680 N   0  0  0  0  0  0  0  0  0  0  0  0
  149.9630  151.0950  131.2370 C   0  0  0  0  0  0  0  0  0  0  0  0
  149.2290  152.2380  133.2580 C   0  0  0  0  0  0  0  0  0  0  0  0
  148.4340  153.4680  133.7220 C   0  0  0  0  0  0  0  0  0  0  0  0
  148.1720  154.3820  132.6080 N   0  0  0  0  0  0  0  0  0  0  0  0
  147.8740  155.7830  132.7510 C   0  0  0  0  0  0  0  0  0  0  0  0
  148.9250  156.7240  132.6100 C   0  0  0  0  0  0  0  0  0  0  0  0
  148.6810  158.1020  132.7270 C   0  0  0  0  0  0  0  0  0  0  0  0
  147.3810  158.5130  133.0010 C   0  0  0  0  0  0  0  0  0  0  0  0
  146.8660  159.7800  133.1380 C   0  0  0  0  0  0  0  0  0  0  0  0
  145.5080  159.6010  133.3970 C   0  0  0  0  0  0  0  0  0  0  0  0
  144.5840  160.7150  133.6950 C   0  0  0  0  0  0  0  0  0  0  0  0
  143.2000  160.6280  133.3750 N   0  0  0  0  0  0  0  0  0  0  0  0
  145.0160  161.7410  134.2880 O   0  0  0  0  0  0  0  0  0  0  0  0
  145.1950  158.2740  133.4110 N   0  0  0  0  0  0  0  0  0  0  0  0
  143.8970  157.6750  133.5540 C   0  0  0  0  0  0  0  0  0  0  0  0
  143.0290  157.8150  132.6520 O   0  0  0  0  0  0  0  0  0  0  0  0
  143.5940  156.9170  134.6780 O   0  0  0  0  0  0  0  0  0  0  0  0
  146.3550  157.6210  133.1690 C   0  0  0  0  0  0  0  0  0  0  0  0
  146.5650  156.2430  133.0380 C   0  0  0  0  0  0  0  0  0  0  0  0
  147.3193  150.8739  132.8851 H   0  0  0  0  0  0  0  0  0  0  0  0
  146.8508  151.6403  131.3295 H   0  0  0  0  0  0  0  0  0  0  0  0
  147.8163  150.1256  131.3295 H   0  0  0  0  0  0  0  0  0  0  0  0
  150.5944  150.6448  132.0171 H   0  0  0  0  0  0  0  0  0  0  0  0
  149.5305  150.3003  130.6114 H   0  0  0  0  0  0  0  0  0  0  0  0
  150.5734  151.7628  130.6114 H   0  0  0  0  0  0  0  0  0  0  0  0
  149.0013  151.3918  133.9228 H   0  0  0  0  0  0  0  0  0  0  0  0
  150.3010  152.4819  133.2943 H   0  0  0  0  0  0  0  0  0  0  0  0
  147.4751  153.1359  134.1465 H   0  0  0  0  0  0  0  0  0  0  0  0
  149.0291  154.0020  134.4774 H   0  0  0  0  0  0  0  0  0  0  0  0
  148.1650  153.9680  131.6480 H   0  0  0  0  0  0  0  0  0  0  0  0
  149.9462  156.3697  132.4060 H   0  0  0  0  0  0  0  0  0  0  0  0
  149.4932  158.8338  132.6056 H   0  0  0  0  0  0  0  0  0  0  0  0
  147.4099  160.7329  133.0599 H   0  0  0  0  0  0  0  0  0  0  0  0
  142.8620  159.9950  132.6170 H   0  0  0  0  0  0  0  0  0  0  0  0
  145.7326  155.5335  133.1552 H   0  0  0  0  0  0  0  0  0  0  0  0
  1  2  1  0
  2  3  1  0
  2  4  1  0
  4  5  1  0
  5  6  1  0
  6  7  1  0
  7  8  2  0
  8  9  1  0
  9 10  2  0
 10 11  1  0
 11 12  2  0
 12 13  1  0
 13 14  1  0
 13 15  2  0
 12 16  1  0
 16 17  1  0
 17 18  2  0
 17 19  1  0
 16 20  1  0
 20 21  2  0
 21  7  1  0
 20 10  1  0
  1 22  1  0
  1 23  1  0
  1 24  1  0
  3 25  1  0
  3 26  1  0
  3 27  1  0
  4 28  1  0
  4 29  1  0
  5 30  1  0
  5 31  1  0
  6 32  1  0
  8 33  1  0
  9 34  1  0
 11 35  1  0
 14 36  1  0
 21 37  1  0
M  CHG  2  14  -1  19  -1
M  END
>  <UniqueID>  (48) 
47

>  <SMILES>  (48) 
CN(C)CCNc1ccc2cc(C([NH-])=O)n(C(=O)[O-])c2c1

>  <Energy>  (48) 
75.30136002711278

>  <Genealogy>  (48) 
CN(C)CCNc1ccc2cc(C([NH-])=O)n(C(=O)[O-])c2c1 (protonated)
CN(C)CCNc1ccc2cc(C([NH-])=O)n(C(=O)[O-])c2c1 (3D coordinates assigned)
CN(C)CCNc1ccc2cc(C([NH-])=O)n(C(=O)[O-])c2c1 (optimized conformer: 75.30136002711278 kcal/mol)

>  <smiles>  (48) 
CN(C)CCNc1ccc2cc(C(N)=O)n(C(=O)O)c2c1

>  <score_type>  (48) 
oracle

>  <origin>  (48) 
adg

>  <m_score__min__energy>  (48) 
-6.9000000000000004

>  <m_primary>  (48) 
energy

$$$$
50:0
     RDKit          3D

 57 59  0  0  0  0  0  0  0  0999 V2000
  149.7430  159.7770  130.7060 C   0  0  0  0  0  0  0  0  0  0  0  0
  149.9140  159.5760  132.0920 O   0  0  0  0  0  0  0  0  0  0  0  0
  148.6860  159.7730  132.7740 C   0  0  2  0  0  0  0  0  0  0  0  0
  148.6150  158.8820  134.0130 C   0  0  0  0  0  0  0  0  0  0  0  0
  147.7220  157.7250  133.5900 C   0  0  1  0  0  0  0  0  0  0  0  0
  147.0880  156.9160  134.7510 C   0  0  0  0  0  0  0  0  0  0  0  0
  147.0680  155.5080  134.5060 O   0  0  0  0  0  0  0  0  0  0  0  0
  147.3980  154.9240  133.2790 C   0  0  0  0  0  0  0  0  0  0  0  0
  146.9460  155.3840  132.1960 O   0  0  0  0  0  0  0  0  0  0  0  0
  148.2380  153.8190  133.2540 O   0  0  0  0  0  0  0  0  0  0  0  0
  146.7780  158.2510  132.5810 N   0  0  1  0  0  0  0  0  0  0  0  0
  145.5100  158.7230  133.1290 C   0  0  0  0  0  0  0  0  0  0  0  0
  145.3270  160.0730  133.5560 C   0  0  0  0  0  0  0  0  0  0  0  0
  144.1120  160.4950  134.1170 C   0  0  0  0  0  0  0  0  0  0  0  0
  143.0960  159.5570  134.2590 C   0  0  0  0  0  0  0  0  0  0  0  0
  141.8210  159.7030  134.7530 C   0  0  0  0  0  0  0  0  0  0  0  0
  141.2410  158.4400  134.6560 C   0  0  0  0  0  0  0  0  0  0  0  0
  139.8880  158.1240  135.1590 C   0  0  0  0  0  0  0  0  0  0  0  0
  139.6390  158.1080  136.5630 N   0  0  0  0  0  0  0  0  0  0  0  0
  138.9560  157.8300  134.3640 O   0  0  0  0  0  0  0  0  0  0  0  0
  142.1220  157.5500  134.1160 N   0  0  0  0  0  0  0  0  0  0  0  0
  141.8850  156.1730  133.7880 C   0  0  0  0  0  0  0  0  0  0  0  0
  140.9450  155.8710  133.0050 O   0  0  0  0  0  0  0  0  0  0  0  0
  142.6920  155.1800  134.3630 O   0  0  0  0  0  0  0  0  0  0  0  0
  143.3760  154.1290  133.6640 C   0  0  0  0  0  0  0  0  0  0  0  0
  144.5260  153.6590  134.5670 C   0  0  0  0  0  0  0  0  0  0  0  0
  142.4280  152.9420  133.4060 C   0  0  0  0  0  0  0  0  0  0  0  0
  143.9660  154.6520  132.3400 C   0  0  0  0  0  0  0  0  0  0  0  0
  143.2530  158.2510  133.8790 C   0  0  0  0  0  0  0  0  0  0  0  0
  144.4450  157.8050  133.2980 C   0  0  0  0  0  0  0  0  0  0  0  0
  147.5220  159.3150  131.8750 C   0  0  0  0  0  0  0  0  0  0  0  0
  149.0384  160.6052  130.5398 H   0  0  0  0  0  0  0  0  0  0  0  0
  150.7127  160.0233  130.2488 H   0  0  0  0  0  0  0  0  0  0  0  0
  149.3446  158.8592  130.2488 H   0  0  0  0  0  0  0  0  0  0  0  0
  148.6195  160.8385  133.0389 H   0  0  0  0  0  0  0  0  0  0  0  0
  149.6159  158.5207  134.2916 H   0  0  0  0  0  0  0  0  0  0  0  0
  148.2259  159.4146  134.8933 H   0  0  0  0  0  0  0  0  0  0  0  0
  148.3344  156.9343  133.1320 H   0  0  0  0  0  0  0  0  0  0  0  0
  147.6679  157.1041  135.6666 H   0  0  0  0  0  0  0  0  0  0  0  0
  146.0437  157.2471  134.8504 H   0  0  0  0  0  0  0  0  0  0  0  0
  146.5840  157.4870  131.8890 H   0  0  0  0  0  0  0  0  0  0  0  0
  146.1508  160.7932  133.4435 H   0  0  0  0  0  0  0  0  0  0  0  0
  143.9677  161.5380  134.4352 H   0  0  0  0  0  0  0  0  0  0  0  0
  141.3576  160.6216  135.1420 H   0  0  0  0  0  0  0  0  0  0  0  0
  139.4600  158.9940  137.0860 H   0  0  0  0  0  0  0  0  0  0  0  0
  144.2361  153.7775  135.6215 H   0  0  0  0  0  0  0  0  0  0  0  0
  144.7430  152.6001  134.3631 H   0  0  0  0  0  0  0  0  0  0  0  0
  145.4226  154.2628  134.3631 H   0  0  0  0  0  0  0  0  0  0  0  0
  142.0940  152.5239  134.3671 H   0  0  0  0  0  0  0  0  0  0  0  0
  141.5548  153.2879  132.8334 H   0  0  0  0  0  0  0  0  0  0  0  0
  142.9584  152.1669  132.8334 H   0  0  0  0  0  0  0  0  0  0  0  0
  144.7732  155.3675  132.5556 H   0  0  0  0  0  0  0  0  0  0  0  0
  144.3688  153.8088  131.7596 H   0  0  0  0  0  0  0  0  0  0  0  0
  143.1772  155.1530  131.7596 H   0  0  0  0  0  0  0  0  0  0  0  0
  144.5532  156.7582  132.9777 H   0  0  0  0  0  0  0  0  0  0  0  0
  147.9172  158.9246  130.9256 H   0  0  0  0  0  0  0  0  0  0  0  0
  146.8552  160.1628  131.6589 H   0  0  0  0  0  0  0  0  0  0  0  0
  1  2  1  0
  2  3  1  0
  3  4  1  0
  4  5  1  0
  5  6  1  0
  6  7  1  0
  7  8  1  0
  8  9  2  0
  8 10  1  0
  5 11  1  0
 11 12  1  0
 12 13  2  0
 13 14  1  0
 14 15  2  0
 15 16  1  0
 16 17  2  0
 17 18  1  0
 18 19  1  0
 18 20  2  0
 17 21  1  0
 21 22  1  0
 22 23  2  0
 22 24  1  0
 24 25  1  0
 25 26  1  0
 25 27  1  0
 25 28  1  0
 21 29  1  0
 29 30  2  0
 11 31  1  0
 31  3  1  0
 30 12  1  0
 29 15  1  0
  1 32  1  0
  1 33  1  0
  1 34  1  0
  3 35  1  1
  4 36  1  0
  4 37  1  0
  5 38  1  6
  6 39  1  0
  6 40  1  0
 11 41  1  6
 13 42  1  0
 14 43  1  0
 16 44  1  0
 19 45  1  0
 26 46  1  0
 26 47  1  0
 26 48  1  0
 27 49  1  0
 27 50  1  0
 27 51  1  0
 28 52  1  0
 28 53  1  0
 28 54  1  0
 30 55  1  0
 31 56  1  0
 31 57  1  0
M  CHG  3  10  -1  11   1  19  -1
M  END
>  <UniqueID>  (49) 
48

>  <SMILES>  (49) 
CO[C@@H]1C[C@@H](COC(=O)[O-])[N@@H+](c2ccc3cc(C([NH-])=O)n(C(=O)OC(C)(C)C)c3c2)C1

>  <Energy>  (49) 
106.08553166878269

>  <Genealogy>  (49) 
CO[C@@H]1C[C@@H](COC(=O)[O-])[NH+](c2ccc3cc(C([NH-])=O)n(C(=O)OC(C)(C)C)c3c2)C1 (protonated)
CO[C@@H]1C[C@@H](COC(=O)[O-])[N@@H+](c2ccc3cc(C([NH-])=O)n(C(=O)OC(C)(C)C)c3c2)C1 (chirality)
CO[C@@H]1C[C@@H](COC(=O)[O-])[N@@H+](c2ccc3cc(C([NH-])=O)n(C(=O)OC(C)(C)C)c3c2)C1 (3D coordinates assigned)
CO[C@@H]1C[C@@H](COC(=O)[O-])[N@@H+](c2ccc3cc(C([NH-])=O)n(C(=O)OC(C)(C)C)c3c2)C1 (nonaromatic ring conformer: 106.08553166878269 kcal/mol)

>  <smiles>  (49) 
CO[C@@H]1C[C@@H](COC(=O)O)N(c2ccc3cc(C(N)=O)n(C(=O)OC(C)(C)C)c3c2)C1

>  <score_type>  (49) 
oracle

>  <origin>  (49) 
adg

>  <m_score__min__energy>  (49) 
-7.3300000000000001

>  <m_primary>  (49) 
energy

$$$$
51:0
     RDKit          3D

 44 45  0  0  0  0  0  0  0  0999 V2000
  139.1240  157.7420  134.4910 C   0  0  0  0  0  0  0  0  0  0  0  0
  140.4870  157.6010  133.7830 C   0  0  2  0  0  0  0  0  0  0  0  0
  140.7100  156.1710  133.3480 C   0  0  0  0  0  0  0  0  0  0  0  0
  141.8740  155.6860  133.3640 O   0  0  0  0  0  0  0  0  0  0  0  0
  139.6410  155.3630  132.9770 O   0  0  0  0  0  0  0  0  0  0  0  0
  141.6460  158.1060  134.5770 N   0  0  2  0  0  0  0  0  0  0  0  0
  141.5940  157.7570  136.0110 C   0  0  0  0  0  0  0  0  0  0  0  0
  141.8160  159.5390  134.4030 C   0  0  0  0  0  0  0  0  0  0  0  0
  141.1880  160.3300  135.0950 O   0  0  0  0  0  0  0  0  0  0  0  0
  142.7550  160.0860  133.3580 C   0  0  0  0  0  0  0  0  0  0  0  0
  143.8820  159.2270  133.2040 O   0  0  0  0  0  0  0  0  0  0  0  0
  145.1920  159.6170  133.5050 C   0  0  0  0  0  0  0  0  0  0  0  0
  145.4190  160.7510  134.0110 O   0  0  0  0  0  0  0  0  0  0  0  0
  146.2780  158.7080  133.2660 N   0  0  0  0  0  0  0  0  0  0  0  0
  146.3700  157.3960  133.6310 C   0  0  0  0  0  0  0  0  0  0  0  0
  145.4120  156.6630  134.4840 C   0  0  0  0  0  0  0  0  0  0  0  0
  144.0290  157.0090  134.4570 N   0  0  0  0  0  0  0  0  0  0  0  0
  145.7950  155.7080  135.2110 O   0  0  0  0  0  0  0  0  0  0  0  0
  147.5570  156.8420  133.1600 C   0  0  0  0  0  0  0  0  0  0  0  0
  148.1990  157.8620  132.4960 C   0  0  0  0  0  0  0  0  0  0  0  0
  149.4220  157.8660  131.8290 C   0  0  0  0  0  0  0  0  0  0  0  0
  149.8310  159.0600  131.2140 C   0  0  0  0  0  0  0  0  0  0  0  0
  149.0150  160.2170  131.2660 C   0  0  0  0  0  0  0  0  0  0  0  0
  149.4670  161.4800  130.5890 C   0  0  0  0  0  0  0  0  0  0  0  0
  148.4940  162.4530  130.7200 F   0  0  0  0  0  0  0  0  0  0  0  0
  149.6900  161.2340  129.2470 F   0  0  0  0  0  0  0  0  0  0  0  0
  147.7800  160.1750  131.9520 C   0  0  0  0  0  0  0  0  0  0  0  0
  147.4070  158.9780  132.5740 C   0  0  0  0  0  0  0  0  0  0  0  0
  139.2735  157.7265  135.5807 H   0  0  0  0  0  0  0  0  0  0  0  0
  138.6556  158.6934  134.1986 H   0  0  0  0  0  0  0  0  0  0  0  0
  138.4708  156.9066  134.1986 H   0  0  0  0  0  0  0  0  0  0  0  0
  140.4364  158.2516  132.8975 H   0  0  0  0  0  0  0  0  0  0  0  0
  142.5070  157.6420  134.2020 H   0  0  0  0  0  0  0  0  0  0  0  0
  141.7295  158.6664  136.6148 H   0  0  0  0  0  0  0  0  0  0  0  0
  140.6185  157.3047  136.2432 H   0  0  0  0  0  0  0  0  0  0  0  0
  142.3952  157.0400  136.2432 H   0  0  0  0  0  0  0  0  0  0  0  0
  142.2238  160.1625  132.3978 H   0  0  0  0  0  0  0  0  0  0  0  0
  143.1043  161.0791  133.6770 H   0  0  0  0  0  0  0  0  0  0  0  0
  143.5220  157.1210  133.5510 H   0  0  0  0  0  0  0  0  0  0  0  0
  147.9076  155.8076  133.2909 H   0  0  0  0  0  0  0  0  0  0  0  0
  150.0475  156.9622  131.7855 H   0  0  0  0  0  0  0  0  0  0  0  0
  150.7953  159.0976  130.6861 H   0  0  0  0  0  0  0  0  0  0  0  0
  150.3988  161.8275  131.0590 H   0  0  0  0  0  0  0  0  0  0  0  0
  147.1287  161.0604  131.9959 H   0  0  0  0  0  0  0  0  0  0  0  0
  1  2  1  0
  2  3  1  0
  3  4  2  0
  3  5  1  0
  2  6  1  0
  6  7  1  0
  6  8  1  0
  8  9  2  0
  8 10  1  0
 10 11  1  0
 11 12  1  0
 12 13  2  0
 12 14  1  0
 14 15  1  0
 15 16  1  0
 16 17  1  0
 16 18  2  0
 15 19  2  0
 19 20  1  0
 20 21  2  0
 21 22  1  0
 22 23  2  0
 23 24  1  0
 24 25  1  0
 24 26  1  0
 23 27  1  0
 27 28  2  0
 28 14  1  0
 28 20  1  0
  1 29  1  0
  1 30  1  0
  1 31  1  0
  2 32  1  6
  6 33  1  6
  7 34  1  0
  7 35  1  0
  7 36  1  0
 10 37  1  0
 10 38  1  0
 17 39  1  0
 19 40  1  0
 21 41  1  0
 22 42  1  0
 24 43  1  0
 27 44  1  0
M  CHG  3   5  -1   6   1  17  -1
M  END
>  <UniqueID>  (50) 
49

>  <SMILES>  (50) 
C[C@H](C(=O)[O-])[N@H+](C)C(=O)COC(=O)n1c(C([NH-])=O)cc2ccc(C(F)F)cc21

>  <Energy>  (50) 
84.362972353854

>  <Genealogy>  (50) 
CC(C(=O)[O-])[NH+](C)C(=O)COC(=O)n1c(C([NH-])=O)cc2ccc(C(F)F)cc21 (protonated)
C[C@H](C(=O)[O-])[N@H+](C)C(=O)COC(=O)n1c(C([NH-])=O)cc2ccc(C(F)F)cc21 (chirality)
C[C@H](C(=O)[O-])[N@H+](C)C(=O)COC(=O)n1c(C([NH-])=O)cc2ccc(C(F)F)cc21 (3D coordinates assigned)
C[C@H](C(=O)[O-])[N@H+](C)C(=O)COC(=O)n1c(C([NH-])=O)cc2ccc(C(F)F)cc21 (optimized conformer: 84.362972353854 kcal/mol)

>  <smiles>  (50) 
CC(C(=O)O)N(C)C(=O)COC(=O)n1c(C(N)=O)cc2ccc(C(F)F)cc21

>  <score_type>  (50) 
oracle

>  <origin>  (50) 
adg

>  <m_score__min__energy>  (50) 
-5.4400000000000004

>  <m_primary>  (50) 
energy

$$$$
52:0
     RDKit          3D

 29 30  0  0  0  0  0  0  0  0999 V2000
  149.9860  158.6370  131.8590 C   0  0  0  0  0  0  0  0  0  0  0  0
  148.8160  159.5250  131.8670 N   0  0  0  0  0  0  0  0  0  0  0  0
  148.9410  160.8660  131.2840 C   0  0  0  0  0  0  0  0  0  0  0  0
  147.5590  159.0840  132.4420 C   0  0  0  0  0  0  0  0  0  0  0  0
  147.2830  157.6960  132.6070 C   0  0  0  0  0  0  0  0  0  0  0  0
  146.0660  157.2580  133.1520 C   0  0  0  0  0  0  0  0  0  0  0  0
  145.1380  158.2190  133.5360 C   0  0  0  0  0  0  0  0  0  0  0  0
  143.8770  158.0690  134.0630 C   0  0  0  0  0  0  0  0  0  0  0  0
  143.3940  159.3630  134.2420 C   0  0  0  0  0  0  0  0  0  0  0  0
  142.0910  159.6640  134.8710 C   0  0  0  0  0  0  0  0  0  0  0  0
  141.0490  160.2990  134.1360 N   0  0  0  0  0  0  0  0  0  0  0  0
  141.9130  159.4010  136.0900 O   0  0  0  0  0  0  0  0  0  0  0  0
  144.3200  160.2780  133.8330 N   0  0  0  0  0  0  0  0  0  0  0  0
  144.1810  161.7070  133.7750 C   0  0  0  0  0  0  0  0  0  0  0  0
  143.1140  162.2260  133.3560 O   0  0  0  0  0  0  0  0  0  0  0  0
  145.2330  162.5300  134.1600 O   0  0  0  0  0  0  0  0  0  0  0  0
  145.3830  159.5600  133.4060 C   0  0  0  0  0  0  0  0  0  0  0  0
  146.5790  160.0260  132.8480 C   0  0  0  0  0  0  0  0  0  0  0  0
  150.2826  158.4119  132.8941 H   0  0  0  0  0  0  0  0  0  0  0  0
  149.7328  157.7016  131.3385 H   0  0  0  0  0  0  0  0  0  0  0  0
  150.8188  159.1325  131.3385 H   0  0  0  0  0  0  0  0  0  0  0  0
  149.0105  161.6112  132.0901 H   0  0  0  0  0  0  0  0  0  0  0  0
  149.8474  160.9126  130.6625 H   0  0  0  0  0  0  0  0  0  0  0  0
  148.0588  161.0793  130.6625 H   0  0  0  0  0  0  0  0  0  0  0  0
  148.0366  156.9550  132.3020 H   0  0  0  0  0  0  0  0  0  0  0  0
  145.8528  156.1855  133.2717 H   0  0  0  0  0  0  0  0  0  0  0  0
  143.3592  157.1265  134.2943 H   0  0  0  0  0  0  0  0  0  0  0  0
  141.2190  161.1940  133.6260 H   0  0  0  0  0  0  0  0  0  0  0  0
  146.7562  161.1048  132.7263 H   0  0  0  0  0  0  0  0  0  0  0  0
  1  2  1  0
  2  3  1  0
  2  4  1  0
  4  5  2  0
  5  6  1  0
  6  7  2  0
  7  8  1  0
  8  9  2  0
  9 10  1  0
 10 11  1  0
 10 12  2  0
  9 13  1  0
 13 14  1  0
 14 15  2  0
 14 16  1  0
 13 17  1  0
 17 18  2  0
 18  4  1  0
 17  7  1  0
  1 19  1  0
  1 20  1  0
  1 21  1  0
  3 22  1  0
  3 23  1  0
  3 24  1  0
  5 25  1  0
  6 26  1  0
  8 27  1  0
 11 28  1  0
 18 29  1  0
M  CHG  2  11  -1  16  -1
M  END
>  <UniqueID>  (51) 
50

>  <SMILES>  (51) 
CN(C)c1ccc2cc(C([NH-])=O)n(C(=O)[O-])c2c1

>  <Energy>  (51) 
70.69829321217739

>  <Genealogy>  (51) 
CN(C)c1ccc2cc(C([NH-])=O)n(C(=O)[O-])c2c1 (protonated)
CN(C)c1ccc2cc(C([NH-])=O)n(C(=O)[O-])c2c1 (3D coordinates assigned)
CN(C)c1ccc2cc(C([NH-])=O)n(C(=O)[O-])c2c1 (optimized conformer: 70.69829321217739 kcal/mol)

>  <smiles>  (51) 
CN(C)c1ccc2cc(C(N)=O)n(C(=O)O)c2c1

>  <score_type>  (51) 
oracle

>  <origin>  (51) 
adg

>  <m_score__min__energy>  (51) 
-5.4500000000000002

>  <m_primary>  (51) 
energy

$$$$
53:0
     RDKit          3D

 49 51  0  0  0  0  0  0  0  0999 V2000
  147.5230  160.3200  132.8820 C   0  0  0  0  0  0  0  0  0  0  0  0
  146.1400  159.9400  133.3230 C   0  0  0  0  0  0  0  0  0  0  0  0
  145.2220  160.9450  133.7170 C   0  0  0  0  0  0  0  0  0  0  0  0
  143.9170  160.6060  134.1090 C   0  0  0  0  0  0  0  0  0  0  0  0
  143.5540  159.2620  134.0780 C   0  0  0  0  0  0  0  0  0  0  0  0
  142.3700  158.6570  134.4280 C   0  0  0  0  0  0  0  0  0  0  0  0
  142.5690  157.2960  134.2050 C   0  0  0  0  0  0  0  0  0  0  0  0
  141.5080  156.2820  134.3760 C   0  0  0  0  0  0  0  0  0  0  0  0
  141.7330  155.1110  135.1580 N   0  0  0  0  0  0  0  0  0  0  0  0
  140.4050  156.4260  133.7840 O   0  0  0  0  0  0  0  0  0  0  0  0
  143.8300  157.0670  133.7420 N   0  0  0  0  0  0  0  0  0  0  0  0
  144.4530  155.7990  133.4890 C   0  0  0  0  0  0  0  0  0  0  0  0
  145.0120  155.5780  132.3800 O   0  0  0  0  0  0  0  0  0  0  0  0
  144.4550  154.8170  134.4850 O   0  0  0  0  0  0  0  0  0  0  0  0
  144.7740  153.4540  134.2240 C   0  0  0  0  0  0  0  0  0  0  0  0
  143.5750  152.7130  134.0250 O   0  0  0  0  0  0  0  0  0  0  0  0
  143.4330  151.7490  133.0210 C   0  0  0  0  0  0  0  0  0  0  0  0
  144.4510  151.3120  132.4190 O   0  0  0  0  0  0  0  0  0  0  0  0
  142.0810  151.2550  132.6790 C   0  0  0  0  0  0  0  0  0  0  0  0
  140.9840  151.9610  132.6910 N   0  0  0  0  0  0  0  0  0  0  0  0
  140.8260  153.3740  133.0350 C   0  0  0  0  0  0  0  0  0  0  0  0
  139.9380  151.0810  132.2910 C   0  0  0  0  0  0  0  0  0  0  0  0
  138.7280  151.4150  132.1800 O   0  0  0  0  0  0  0  0  0  0  0  0
  140.4810  149.7580  132.0300 C   0  0  0  0  0  0  0  0  0  0  0  0
  139.7210  148.5400  131.5660 C   0  0  1  0  0  0  0  0  0  0  0  0
  138.9480  148.8170  130.2730 C   0  0  0  0  0  0  0  0  0  0  0  0
  140.5810  147.4370  131.4240 O   0  0  0  0  0  0  0  0  0  0  0  0
  141.7870  149.8740  132.2650 C   0  0  0  0  0  0  0  0  0  0  0  0
  142.7190  148.8520  132.1310 O   0  0  0  0  0  0  0  0  0  0  0  0
  144.4210  158.2810  133.6680 C   0  0  0  0  0  0  0  0  0  0  0  0
  145.7340  158.5890  133.2900 C   0  0  0  0  0  0  0  0  0  0  0  0
  148.1548  160.4936  133.7655 H   0  0  0  0  0  0  0  0  0  0  0  0
  147.9520  159.5064  132.2786 H   0  0  0  0  0  0  0  0  0  0  0  0
  147.4760  161.2385  132.2786 H   0  0  0  0  0  0  0  0  0  0  0  0
  145.5344  161.9997  133.7157 H   0  0  0  0  0  0  0  0  0  0  0  0
  143.2032  161.3786  134.4308 H   0  0  0  0  0  0  0  0  0  0  0  0
  141.4585  159.1443  134.8044 H   0  0  0  0  0  0  0  0  0  0  0  0
  142.3770  154.3600  134.8270 H   0  0  0  0  0  0  0  0  0  0  0  0
  145.3979  153.3905  133.3203 H   0  0  0  0  0  0  0  0  0  0  0  0
  145.3236  153.0368  135.0807 H   0  0  0  0  0  0  0  0  0  0  0  0
  140.8135  153.4858  134.1292 H   0  0  0  0  0  0  0  0  0  0  0  0
  141.6654  153.9492  132.6172 H   0  0  0  0  0  0  0  0  0  0  0  0
  139.8803  153.7496  132.6172 H   0  0  0  0  0  0  0  0  0  0  0  0
  138.9795  148.2929  132.3401 H   0  0  0  0  0  0  0  0  0  0  0  0
  137.9388  149.1787  130.5194 H   0  0  0  0  0  0  0  0  0  0  0  0
  139.4780  149.5811  129.6855 H   0  0  0  0  0  0  0  0  0  0  0  0
  138.8720  147.8901  129.6855 H   0  0  0  0  0  0  0  0  0  0  0  0
  141.4810  147.7050  131.7430 H   0  0  0  0  0  0  0  0  0  0  0  0
  146.4308  157.7981  132.9755 H   0  0  0  0  0  0  0  0  0  0  0  0
  1  2  1  0
  2  3  2  0
  3  4  1  0
  4  5  2  0
  5  6  1  0
  6  7  2  0
  7  8  1  0
  8  9  1  0
  8 10  2  0
  7 11  1  0
 11 12  1  0
 12 13  2  0
 12 14  1  0
 14 15  1  0
 15 16  1  0
 16 17  1  0
 17 18  2  0
 17 19  1  0
 19 20  2  0
 20 21  1  0
 20 22  1  0
 22 23  2  0
 22 24  1  0
 24 25  1  0
 25 26  1  0
 25 27  1  0
 24 28  2  0
 28 29  1  0
 11 30  1  0
 30 31  2  0
 31  2  1  0
 30  5  1  0
 28 19  1  0
  1 32  1  0
  1 33  1  0
  1 34  1  0
  3 35  1  0
  4 36  1  0
  6 37  1  0
  9 38  1  0
 15 39  1  0
 15 40  1  0
 21 41  1  0
 21 42  1  0
 21 43  1  0
 25 44  1  1
 26 45  1  0
 26 46  1  0
 26 47  1  0
 27 48  1  0
 31 49  1  0
M  CHG  3   9  -1  20   1  29  -1
M  END
>  <UniqueID>  (52) 
51

>  <SMILES>  (52) 
Cc1ccc2cc(C([NH-])=O)n(C(=O)OCOC(=O)C3=[N+](C)C(=O)C([C@@H](C)O)=C3[O-])c2c1

>  <Energy>  (52) 
114.19775600754767

>  <Genealogy>  (52) 
Cc1ccc2cc(C([NH-])=O)n(C(=O)OCOC(=O)C3=[N+](C)C(=O)C([C@@H](C)O)=C3[O-])c2c1 (protonated)
Cc1ccc2cc(C([NH-])=O)n(C(=O)OCOC(=O)C3=[N+](C)C(=O)C([C@@H](C)O)=C3[O-])c2c1 (3D coordinates assigned)
Cc1ccc2cc(C([NH-])=O)n(C(=O)OCOC(=O)C3=[N+](C)C(=O)C([C@@H](C)O)=C3[O-])c2c1 (nonaromatic ring conformer: 114.19775600754767 kcal/mol)

>  <smiles>  (52) 
Cc1ccc2cc(C(N)=O)n(C(=O)OCOC(=O)C3=[N+](C)C(=O)C([C@@H](C)O)=C3O)c2c1

>  <score_type>  (52) 
oracle

>  <origin>  (52) 
adg

>  <m_score__min__energy>  (52) 
-7.7400000000000002

>  <m_primary>  (52) 
energy

$$$$
54:0
     RDKit          3D

 47 48  0  0  0  0  0  0  0  0999 V2000
  140.1040  159.2350  131.8070 C   0  0  0  0  0  0  0  0  0  0  0  0
  138.9860  158.5990  132.1650 C   0  0  0  0  0  0  0  0  0  0  0  0
  137.6810  158.9660  131.5080 C   0  0  0  0  0  0  0  0  0  0  0  0
  139.0100  157.5740  133.2390 C   0  0  0  0  0  0  0  0  0  0  0  0
  138.7120  157.8950  134.4260 O   0  0  0  0  0  0  0  0  0  0  0  0
  139.3730  156.2580  132.9350 O   0  0  0  0  0  0  0  0  0  0  0  0
  140.2340  155.4600  133.7510 C   0  0  0  0  0  0  0  0  0  0  0  0
  140.6790  154.2050  132.9920 C   0  0  0  0  0  0  0  0  0  0  0  0
  141.2420  153.1060  133.9110 C   0  0  0  0  0  0  0  0  0  0  0  0
  142.7460  153.2700  134.1710 C   0  0  0  0  0  0  0  0  0  0  0  0
  143.0460  154.6400  134.4310 O   0  0  0  0  0  0  0  0  0  0  0  0
  143.2820  155.1390  135.7250 C   0  0  0  0  0  0  0  0  0  0  0  0
  144.3060  154.7770  136.3700 O   0  0  0  0  0  0  0  0  0  0  0  0
  142.3480  156.0590  136.3240 N   0  0  0  0  0  0  0  0  0  0  0  0
  141.4980  155.8040  137.3560 C   0  0  0  0  0  0  0  0  0  0  0  0
  141.4700  154.5750  138.1670 C   0  0  0  0  0  0  0  0  0  0  0  0
  142.6800  153.9380  138.5640 N   0  0  0  0  0  0  0  0  0  0  0  0
  140.3620  154.1230  138.5700 O   0  0  0  0  0  0  0  0  0  0  0  0
  140.6640  156.8930  137.5900 C   0  0  0  0  0  0  0  0  0  0  0  0
  141.0340  157.8410  136.6670 C   0  0  0  0  0  0  0  0  0  0  0  0
  140.5240  159.1170  136.4450 C   0  0  0  0  0  0  0  0  0  0  0  0
  141.0840  159.8790  135.4110 C   0  0  0  0  0  0  0  0  0  0  0  0
  142.1190  159.3450  134.6040 C   0  0  0  0  0  0  0  0  0  0  0  0
  142.7510  160.1880  133.5290 C   0  0  0  0  0  0  0  0  0  0  0  0
  144.2880  160.8580  134.1220 Cl  0  0  0  0  0  0  0  0  0  0  0  0
  142.6080  158.0390  134.8520 C   0  0  0  0  0  0  0  0  0  0  0  0
  142.0520  157.3140  135.9100 C   0  0  0  0  0  0  0  0  0  0  0  0
  141.0614  158.9736  132.2814 H   0  0  0  0  0  0  0  0  0  0  0  0
  140.0677  160.0204  131.0377 H   0  0  0  0  0  0  0  0  0  0  0  0
  136.9280  159.1778  132.2813 H   0  0  0  0  0  0  0  0  0  0  0  0
  137.8242  159.8587  130.8814 H   0  0  0  0  0  0  0  0  0  0  0  0
  137.3379  158.1295  130.8814 H   0  0  0  0  0  0  0  0  0  0  0  0
  141.1205  156.0498  134.0271 H   0  0  0  0  0  0  0  0  0  0  0  0
  139.6862  155.1545  134.6547 H   0  0  0  0  0  0  0  0  0  0  0  0
  139.8118  153.7979  132.4515 H   0  0  0  0  0  0  0  0  0  0  0  0
  141.4880  154.5060  132.3102 H   0  0  0  0  0  0  0  0  0  0  0  0
  140.7113  153.1452  134.8737 H   0  0  0  0  0  0  0  0  0  0  0  0
  141.0936  152.1400  133.4062 H   0  0  0  0  0  0  0  0  0  0  0  0
  143.0344  152.6618  135.0410 H   0  0  0  0  0  0  0  0  0  0  0  0
  143.3057  152.9382  133.2841 H   0  0  0  0  0  0  0  0  0  0  0  0
  143.6000  154.3800  138.3770 H   0  0  0  0  0  0  0  0  0  0  0  0
  139.8755  156.9771  138.3524 H   0  0  0  0  0  0  0  0  0  0  0  0
  139.7057  159.5153  137.0629 H   0  0  0  0  0  0  0  0  0  0  0  0
  140.7174  160.8992  135.2244 H   0  0  0  0  0  0  0  0  0  0  0  0
  142.9408  159.5670  132.6411 H   0  0  0  0  0  0  0  0  0  0  0  0
  142.0716  161.0116  133.2642 H   0  0  0  0  0  0  0  0  0  0  0  0
  143.4044  157.6066  134.2284 H   0  0  0  0  0  0  0  0  0  0  0  0
  1  2  2  0
  2  3  1  0
  2  4  1  0
  4  5  2  0
  4  6  1  0
  6  7  1  0
  7  8  1  0
  8  9  1  0
  9 10  1  0
 10 11  1  0
 11 12  1  0
 12 13  2  0
 12 14  1  0
 14 15  1  0
 15 16  1  0
 16 17  1  0
 16 18  2  0
 15 19  2  0
 19 20  1  0
 20 21  2  0
 21 22  1  0
 22 23  2  0
 23 24  1  0
 24 25  1  0
 23 26  1  0
 26 27  2  0
 27 14  1  0
 27 20  1  0
  1 28  1  0
  1 29  1  0
  3 30  1  0
  3 31  1  0
  3 32  1  0
  7 33  1  0
  7 34  1  0
  8 35  1  0
  8 36  1  0
  9 37  1  0
  9 38  1  0
 10 39  1  0
 10 40  1  0
 17 41  1  0
 19 42  1  0
 21 43  1  0
 22 44  1  0
 24 45  1  0
 24 46  1  0
 26 47  1  0
M  CHG  1  17  -1
M  END
>  <UniqueID>  (53) 
52

>  <SMILES>  (53) 
C=C(C)C(=O)OCCCCOC(=O)n1c(C([NH-])=O)cc2ccc(CCl)cc21

>  <Energy>  (53) 
76.81039042298384

>  <Genealogy>  (53) 
C=C(C)C(=O)OCCCCOC(=O)n1c(C([NH-])=O)cc2ccc(CCl)cc21 (protonated)
C=C(C)C(=O)OCCCCOC(=O)n1c(C([NH-])=O)cc2ccc(CCl)cc21 (3D coordinates assigned)
C=C(C)C(=O)OCCCCOC(=O)n1c(C([NH-])=O)cc2ccc(CCl)cc21 (optimized conformer: 76.81039042298384 kcal/mol)

>  <smiles>  (53) 
C=C(C)C(=O)OCCCCOC(=O)n1c(C(N)=O)cc2ccc(CCl)cc21

>  <score_type>  (53) 
oracle

>  <origin>  (53) 
adg

>  <m_score__min__energy>  (53) 
-7.3600000000000003

>  <m_primary>  (53) 
energy

$$$$
56:0
     RDKit          3D

 40 42  0  0  1  0  0  0  0  0999 V2000
  140.4620  158.7680  133.5840 C   0  0  0  0  0  0  0  0  0  0  0  0
  141.5150  159.0600  134.5680 N   0  0  0  0  0  0  0  0  0  0  0  0
  141.2290  158.9630  135.9830 C   0  0  0  0  0  0  0  0  0  0  0  0
  142.8190  159.4410  134.1550 C   0  0  0  0  0  0  0  0  0  0  0  0
  143.0970  160.7430  133.8040 C   0  0  0  0  0  0  0  0  0  0  0  0
  144.3750  161.0330  133.4160 C   0  0  0  0  0  0  0  0  0  0  0  0
  145.3420  160.0530  133.3830 C   0  0  0  0  0  0  0  0  0  0  0  0
  146.6390  160.1200  132.9880 C   0  0  0  0  0  0  0  0  0  0  0  0
  147.1980  158.8350  133.0990 C   0  0  0  0  0  0  0  0  0  0  0  0
  148.5910  158.6200  132.7620 C   0  0  0  0  0  0  0  0  0  0  0  0
  148.9700  157.5390  131.8600 N   0  0  0  0  0  0  0  0  0  0  0  0
  149.5740  159.2820  133.1690 O   0  0  0  0  0  0  0  0  0  0  0  0
  146.2350  157.9850  133.5630 N   0  0  0  0  0  0  0  0  0  0  0  0
  146.4180  156.5990  133.6560 C   0  0  0  0  0  0  0  0  0  0  0  0
  146.5310  156.0490  132.4510 O   0  0  0  0  0  0  0  0  0  0  0  0
  146.5200  155.6550  134.6860 C   0  0  0  0  0  0  0  0  0  0  0  0
  147.5170  154.9910  135.2060 C   0  0  0  0  0  0  0  0  0  0  0  0
  147.3860  154.0370  136.3110 C   0  0  0  0  0  0  0  0  0  0  0  0
  148.2350  153.0970  136.7090 N   0  0  0  0  0  0  0  0  0  0  0  0
  147.7260  152.4450  137.7620 C   0  0  0  0  0  0  0  0  0  0  0  0
  146.5250  152.9840  138.0370 N   0  0  0  0  0  0  0  0  0  0  0  0
  146.3260  153.9480  137.1550 N   0  0  0  0  0  0  0  0  0  0  0  0
  145.1050  158.7330  133.7320 C   0  0  0  0  0  0  0  0  0  0  0  0
  143.8060  158.4680  134.1150 C   0  0  0  0  0  0  0  0  0  0  0  0
  139.5307  158.5098  134.1093 H   0  0  0  0  0  0  0  0  0  0  0  0
  140.2938  159.6534  132.9533 H   0  0  0  0  0  0  0  0  0  0  0  0
  140.7738  157.9224  132.9533 H   0  0  0  0  0  0  0  0  0  0  0  0
  142.1170  159.2642  136.5581 H   0  0  0  0  0  0  0  0  0  0  0  0
  140.3878  159.6261  136.2334 H   0  0  0  0  0  0  0  0  0  0  0  0
  140.9648  157.9250  136.2334 H   0  0  0  0  0  0  0  0  0  0  0  0
  142.3196  161.5207  133.8347 H   0  0  0  0  0  0  0  0  0  0  0  0
  144.6344  162.0620  133.1265 H   0  0  0  0  0  0  0  0  0  0  0  0
  147.1620  161.0234  132.6411 H   0  0  0  0  0  0  0  0  0  0  0  0
  148.5150  156.6040  131.9260 H   0  0  0  0  0  0  0  0  0  0  0  0
  149.6950  157.6690  131.1360 H   0  0  0  0  0  0  0  0  0  0  0  0
  145.5536  155.4236  135.1577 H   0  0  0  0  0  0  0  0  0  0  0  0
  148.5204  155.1585  134.7875 H   0  0  0  0  0  0  0  0  0  0  0  0
  148.2046  151.6167  138.3050 H   0  0  0  0  0  0  0  0  0  0  0  0
  145.4550  154.5240  137.1580 H   0  0  0  0  0  0  0  0  0  0  0  0
  143.5419  157.4393  134.4013 H   0  0  0  0  0  0  0  0  0  0  0  0
  1  2  1  0
  2  3  1  0
  2  4  1  0
  4  5  2  0
  5  6  1  0
  6  7  2  0
  7  8  1  0
  8  9  2  0
  9 10  1  0
 10 11  1  0
 10 12  2  0
  9 13  1  0
 13 14  1  0
 14 15  2  0
 14 16  1  0
 16 17  2  0
 17 18  1  0
 18 19  2  0
 19 20  1  0
 20 21  2  0
 21 22  1  0
 13 23  1  0
 23 24  2  0
 24  4  1  0
 23  7  1  0
 22 18  1  0
  1 25  1  0
  1 26  1  0
  1 27  1  0
  3 28  1  0
  3 29  1  0
  3 30  1  0
  5 31  1  0
  6 32  1  0
  8 33  1  0
 11 34  1  0
 11 35  1  0
 16 36  1  0
 17 37  1  0
 20 38  1  0
 22 39  1  0
 24 40  1  0
M  END
>  <smiles>  (54) 
CN(C)c1ccc2cc(C(N)=O)n(C(=O)C=Cc3ncn[nH]3)c2c1

>  <score_type>  (54) 
oracle

>  <origin>  (54) 
adg

>  <m_score__min__energy>  (54) 
-8.3300000000000001

>  <m_primary>  (54) 
energy

$$$$
57:0
     RDKit          3D

 43 45  0  0  0  0  0  0  0  0999 V2000
  144.9760  152.6880  139.0970 C   0  0  0  0  0  0  0  0  0  0  0  0
  146.1010  152.9330  138.1470 C   0  0  0  0  0  0  0  0  0  0  0  0
  147.3410  152.5590  138.3540 O   0  0  0  0  0  0  0  0  0  0  0  0
  148.0100  152.9230  137.2840 C   0  0  0  0  0  0  0  0  0  0  0  0
  149.2430  152.7250  137.1310 O   0  0  0  0  0  0  0  0  0  0  0  0
  147.2510  153.5110  136.3880 O   0  0  0  0  0  0  0  0  0  0  0  0
  146.0420  153.5310  136.8990 C   0  0  0  0  0  0  0  0  0  0  0  0
  144.8410  154.1050  136.2110 C   0  0  0  0  0  0  0  0  0  0  0  0
  145.2100  155.1870  135.3580 O   0  0  0  0  0  0  0  0  0  0  0  0
  145.7000  155.0110  134.0580 C   0  0  0  0  0  0  0  0  0  0  0  0
  145.1900  154.1370  133.3040 O   0  0  0  0  0  0  0  0  0  0  0  0
  146.7870  155.8250  133.5790 N   0  0  0  0  0  0  0  0  0  0  0  0
  147.9840  155.3940  133.0880 C   0  0  0  0  0  0  0  0  0  0  0  0
  148.4790  154.0030  133.1130 C   0  0  0  0  0  0  0  0  0  0  0  0
  147.7290  152.9620  133.7400 N   0  0  0  0  0  0  0  0  0  0  0  0
  149.6120  153.7410  132.6260 O   0  0  0  0  0  0  0  0  0  0  0  0
  148.7310  156.4600  132.6010 C   0  0  0  0  0  0  0  0  0  0  0  0
  147.9590  157.5760  132.8270 C   0  0  0  0  0  0  0  0  0  0  0  0
  148.2160  158.9080  132.5330 C   0  0  0  0  0  0  0  0  0  0  0  0
  147.2330  159.8570  132.8530 C   0  0  0  0  0  0  0  0  0  0  0  0
  146.0040  159.4660  133.4540 C   0  0  0  0  0  0  0  0  0  0  0  0
  144.9950  160.4560  133.7780 N   0  0  0  0  0  0  0  0  0  0  0  0
  145.3800  161.8240  134.1450 C   0  0  0  0  0  0  0  0  0  0  0  0
  143.5700  160.1060  133.7450 C   0  0  0  0  0  0  0  0  0  0  0  0
  145.7850  158.0920  133.7310 C   0  0  0  0  0  0  0  0  0  0  0  0
  146.7910  157.1690  133.4190 C   0  0  0  0  0  0  0  0  0  0  0  0
  145.3446  152.7683  140.1303 H   0  0  0  0  0  0  0  0  0  0  0  0
  144.1861  153.4352  138.9304 H   0  0  0  0  0  0  0  0  0  0  0  0
  144.5683  151.6800  138.9304 H   0  0  0  0  0  0  0  0  0  0  0  0
  144.3615  153.3193  135.6087 H   0  0  0  0  0  0  0  0  0  0  0  0
  144.1457  154.4823  136.9754 H   0  0  0  0  0  0  0  0  0  0  0  0
  148.0790  151.9780  133.7200 H   0  0  0  0  0  0  0  0  0  0  0  0
  146.8690  153.1760  134.2900 H   0  0  0  0  0  0  0  0  0  0  0  0
  149.7265  156.4199  132.1347 H   0  0  0  0  0  0  0  0  0  0  0  0
  149.1631  159.2110  132.0627 H   0  0  0  0  0  0  0  0  0  0  0  0
  147.4155  160.9198  132.6358 H   0  0  0  0  0  0  0  0  0  0  0  0
  145.4059  161.9161  135.2408 H   0  0  0  0  0  0  0  0  0  0  0  0
  146.3759  162.0472  133.7346 H   0  0  0  0  0  0  0  0  0  0  0  0
  144.6468  162.5339  133.7346 H   0  0  0  0  0  0  0  0  0  0  0  0
  143.1914  160.0130  134.7736 H   0  0  0  0  0  0  0  0  0  0  0  0
  143.0111  160.8936  133.2183 H   0  0  0  0  0  0  0  0  0  0  0  0
  143.4396  159.1491  133.2183 H   0  0  0  0  0  0  0  0  0  0  0  0
  144.8401  157.7569  134.1836 H   0  0  0  0  0  0  0  0  0  0  0  0
  1  2  1  0
  2  3  1  0
  3  4  1  0
  4  5  2  0
  4  6  1  0
  6  7  1  0
  7  8  1  0
  8  9  1  0
  9 10  1  0
 10 11  2  0
 10 12  1  0
 12 13  1  0
 13 14  1  0
 14 15  1  0
 14 16  2  0
 13 17  2  0
 17 18  1  0
 18 19  2  0
 19 20  1  0
 20 21  2  0
 21 22  1  0
 22 23  1  0
 22 24  1  0
 21 25  1  0
 25 26  2  0
  7  2  2  0
 26 12  1  0
 26 18  1  0
  1 27  1  0
  1 28  1  0
  1 29  1  0
  8 30  1  0
  8 31  1  0
 15 32  1  0
 15 33  1  0
 17 34  1  0
 19 35  1  0
 20 36  1  0
 23 37  1  0
 23 38  1  0
 23 39  1  0
 24 40  1  0
 24 41  1  0
 24 42  1  0
 25 43  1  0
M  END
>  <UniqueID>  (55) 
53

>  <SMILES>  (55) 
Cc1oc(=O)oc1COC(=O)n1c(C(N)=O)cc2ccc(N(C)C)cc21

>  <Energy>  (55) 
114.33241469202711

>  <Genealogy>  (55) 
Cc1oc(=O)oc1COC(=O)n1c(C(N)=O)cc2ccc(N(C)C)cc21 (3D coordinates assigned)
Cc1oc(=O)oc1COC(=O)n1c(C(N)=O)cc2ccc(N(C)C)cc21 (optimized conformer: 114.33241469202711 kcal/mol)

>  <smiles>  (55) 
Cc1oc(=O)oc1COC(=O)n1c(C(N)=O)cc2ccc(N(C)C)cc21

>  <score_type>  (55) 
oracle

>  <origin>  (55) 
adg

>  <m_score__min__energy>  (55) 
-7.0199999999999996

>  <m_primary>  (55) 
energy

$$$$
58:0
     RDKit          3D

 50 53  0  0  0  0  0  0  0  0999 V2000
  141.7520  161.0070  133.9640 N   0  0  0  0  0  0  0  0  0  0  0  0
  143.1520  160.8640  133.7380 C   0  0  0  0  0  0  0  0  0  0  0  0
  143.8570  161.8940  133.5640 O   0  0  0  0  0  0  0  0  0  0  0  0
  143.7930  159.5330  133.7560 C   0  0  0  0  0  0  0  0  0  0  0  0
  144.9610  159.2240  133.0600 C   0  0  0  0  0  0  0  0  0  0  0  0
  145.2530  157.9220  133.3980 C   0  0  0  0  0  0  0  0  0  0  0  0
  146.3020  157.1030  132.9940 C   0  0  0  0  0  0  0  0  0  0  0  0
  146.3520  155.7940  133.5090 C   0  0  0  0  0  0  0  0  0  0  0  0
  145.3520  155.3270  134.4030 C   0  0  0  0  0  0  0  0  0  0  0  0
  145.4790  153.9450  134.9950 C   0  0  0  0  0  0  0  0  0  0  0  0
  145.1820  152.9620  134.0650 F   0  0  0  0  0  0  0  0  0  0  0  0
  146.7700  153.7430  135.4490 F   0  0  0  0  0  0  0  0  0  0  0  0
  144.6040  153.8300  136.0590 F   0  0  0  0  0  0  0  0  0  0  0  0
  144.3010  156.1900  134.7850 C   0  0  0  0  0  0  0  0  0  0  0  0
  144.2850  157.4880  134.2650 C   0  0  0  0  0  0  0  0  0  0  0  0
  143.3800  158.4600  134.4880 N   0  0  0  0  0  0  0  0  0  0  0  0
  142.1540  158.3050  135.2220 C   0  0  0  0  0  0  0  0  0  0  0  0
  141.9510  159.0290  136.2360 O   0  0  0  0  0  0  0  0  0  0  0  0
  141.1020  157.2970  134.7970 C   0  0  2  0  0  0  0  0  0  0  0  0
  141.3220  156.7820  133.3720 C   0  0  0  0  0  0  0  0  0  0  0  0
  139.9440  156.4570  132.8030 C   0  0  0  0  0  0  0  0  0  0  0  0
  138.9110  157.1910  133.6810 C   0  0  2  0  0  0  0  0  0  0  0  0
  138.0020  158.1640  133.0160 N   0  0  0  0  0  0  0  0  0  0  0  0
  138.3280  158.6670  131.6630 C   0  0  2  0  0  0  0  0  0  0  0  0
  139.4210  159.7030  131.6190 C   0  0  0  0  0  0  0  0  0  0  0  0
  139.0100  160.5810  130.4540 C   0  0  0  0  0  0  0  0  0  0  0  0
  137.6210  160.4800  130.2570 O   0  0  0  0  0  0  0  0  0  0  0  0
  137.1470  159.4450  131.0910 C   0  0  0  0  0  0  0  0  0  0  0  0
  139.6750  157.8540  134.8290 C   0  0  0  0  0  0  0  0  0  0  0  0
  141.2760  160.5000  134.7380 H   0  0  0  0  0  0  0  0  0  0  0  0
  145.5284  159.8810  132.3845 H   0  0  0  0  0  0  0  0  0  0  0  0
  147.0685  157.4668  132.2940 H   0  0  0  0  0  0  0  0  0  0  0  0
  147.1747  155.1253  133.2158 H   0  0  0  0  0  0  0  0  0  0  0  0
  143.5145  155.8494  135.4745 H   0  0  0  0  0  0  0  0  0  0  0  0
  141.2126  156.4879  135.5340 H   0  0  0  0  0  0  0  0  0  0  0  0
  141.8112  157.5551  132.7612 H   0  0  0  0  0  0  0  0  0  0  0  0
  141.9698  155.8930  133.3692 H   0  0  0  0  0  0  0  0  0  0  0  0
  139.8725  156.8069  131.7626 H   0  0  0  0  0  0  0  0  0  0  0  0
  139.7630  155.3720  132.8067 H   0  0  0  0  0  0  0  0  0  0  0  0
  138.2043  156.4181  134.0175 H   0  0  0  0  0  0  0  0  0  0  0  0
  137.0570  157.7150  132.9520 H   0  0  0  0  0  0  0  0  0  0  0  0
  138.6143  157.7542  131.1201 H   0  0  0  0  0  0  0  0  0  0  0  0
  139.4576  160.2794  132.5552 H   0  0  0  0  0  0  0  0  0  0  0  0
  140.4253  159.2696  131.5027 H   0  0  0  0  0  0  0  0  0  0  0  0
  139.2742  161.6263  130.6718 H   0  0  0  0  0  0  0  0  0  0  0  0
  139.5339  160.2518  129.5445 H   0  0  0  0  0  0  0  0  0  0  0  0
  136.5606  159.8782  131.9147 H   0  0  0  0  0  0  0  0  0  0  0  0
  136.5116  158.7653  130.5043 H   0  0  0  0  0  0  0  0  0  0  0  0
  139.6921  158.9452  134.6911 H   0  0  0  0  0  0  0  0  0  0  0  0
  139.1927  157.6437  135.7950 H   0  0  0  0  0  0  0  0  0  0  0  0
  1  2  1  0
  2  3  2  0
  2  4  1  0
  4  5  2  0
  5  6  1  0
  6  7  2  0
  7  8  1  0
  8  9  2  0
  9 10  1  0
 10 11  1  0
 10 12  1  0
 10 13  1  0
  9 14  1  0
 14 15  2  0
 15 16  1  0
 16 17  1  0
 17 18  2  0
 17 19  1  0
 19 20  1  0
 20 21  1  0
 21 22  1  0
 22 23  1  0
 23 24  1  0
 24 25  1  0
 25 26  1  0
 26 27  1  0
 27 28  1  0
 22 29  1  0
 16  4  1  0
 29 19  1  0
 15  6  1  0
 28 24  1  0
  1 30  1  0
  5 31  1  0
  7 32  1  0
  8 33  1  0
 14 34  1  0
 19 35  1  1
 20 36  1  0
 20 37  1  0
 21 38  1  0
 21 39  1  0
 22 40  1  1
 23 41  1  0
 24 42  1  6
 25 43  1  0
 25 44  1  0
 26 45  1  0
 26 46  1  0
 28 47  1  0
 28 48  1  0
 29 49  1  0
 29 50  1  0
M  CHG  1   1  -1
M  END
>  <UniqueID>  (56) 
54

>  <SMILES>  (56) 
[NH-]C(=O)c1cc2ccc(C(F)(F)F)cc2n1C(=O)[C@@H]1CC[C@H](N[C@@H]2CCOC2)C1

>  <Energy>  (56) 
105.39735106693824

>  <Genealogy>  (56) 
[NH-]C(=O)c1cc2ccc(C(F)(F)F)cc2n1C(=O)[C@@H]1CC[C@H](NC2CCOC2)C1 (protonated)
[NH-]C(=O)c1cc2ccc(C(F)(F)F)cc2n1C(=O)[C@@H]1CC[C@H](N[C@@H]2CCOC2)C1 (chirality)
[NH-]C(=O)c1cc2ccc(C(F)(F)F)cc2n1C(=O)[C@@H]1CC[C@H](N[C@@H]2CCOC2)C1 (3D coordinates assigned)
[NH-]C(=O)c1cc2ccc(C(F)(F)F)cc2n1C(=O)[C@@H]1CC[C@H](N[C@@H]2CCOC2)C1 (nonaromatic ring conformer: 105.39735106693824 kcal/mol)

>  <smiles>  (56) 
NC(=O)c1cc2ccc(C(F)(F)F)cc2n1C(=O)[C@@H]1CC[C@H](NC2CCOC2)C1

>  <score_type>  (56) 
oracle

>  <origin>  (56) 
adg

>  <m_score__min__energy>  (56) 
-8.9700000000000006

>  <m_primary>  (56) 
energy

$$$$
59:0
     RDKit          3D

 37 38  0  0  0  0  0  0  0  0999 V2000
  141.0700  159.3850  132.6410 N   0  0  0  0  0  0  0  0  0  0  0  0
  141.9570  160.0690  133.5250 C   0  0  0  0  0  0  0  0  0  0  0  0
  141.4950  160.9280  134.3210 O   0  0  0  0  0  0  0  0  0  0  0  0
  143.4130  159.8360  133.4720 C   0  0  0  0  0  0  0  0  0  0  0  0
  144.3520  160.8340  133.7130 C   0  0  0  0  0  0  0  0  0  0  0  0
  145.5740  160.2350  133.5170 C   0  0  0  0  0  0  0  0  0  0  0  0
  146.8550  160.7650  133.6440 C   0  0  0  0  0  0  0  0  0  0  0  0
  147.9470  159.9100  133.4270 C   0  0  0  0  0  0  0  0  0  0  0  0
  147.7400  158.5460  133.1000 C   0  0  0  0  0  0  0  0  0  0  0  0
  148.9110  157.6290  132.8920 C   0  0  0  0  0  0  0  0  0  0  0  0
  149.6810  158.0850  131.8380 F   0  0  0  0  0  0  0  0  0  0  0  0
  148.4570  156.3540  132.6080 F   0  0  0  0  0  0  0  0  0  0  0  0
  146.4260  158.0420  132.9870 C   0  0  0  0  0  0  0  0  0  0  0  0
  145.3530  158.9220  133.1840 C   0  0  0  0  0  0  0  0  0  0  0  0
  144.0250  158.6590  133.1510 N   0  0  0  0  0  0  0  0  0  0  0  0
  143.4030  157.3760  132.9510 C   0  0  0  0  0  0  0  0  0  0  0  0
  142.8430  157.1140  131.8520 O   0  0  0  0  0  0  0  0  0  0  0  0
  143.4010  156.4320  133.9860 O   0  0  0  0  0  0  0  0  0  0  0  0
  142.3120  156.2400  134.8910 C   0  0  0  0  0  0  0  0  0  0  0  0
  141.1230  155.5550  134.1980 C   0  0  2  0  0  0  0  0  0  0  0  0
  141.5630  154.8550  133.0630 O   0  0  0  0  0  0  0  0  0  0  0  0
  140.0470  156.5660  133.7840 C   0  0  0  0  0  0  0  0  0  0  0  0
  140.3040  157.0520  132.4960 O   0  0  0  0  0  0  0  0  0  0  0  0
  141.4400  158.8070  131.8560 H   0  0  0  0  0  0  0  0  0  0  0  0
  140.0390  159.5280  132.7160 H   0  0  0  0  0  0  0  0  0  0  0  0
  144.1583  161.8783  133.9990 H   0  0  0  0  0  0  0  0  0  0  0  0
  147.0070  161.8223  133.9066 H   0  0  0  0  0  0  0  0  0  0  0  0
  148.9715  160.3014  133.5113 H   0  0  0  0  0  0  0  0  0  0  0  0
  149.5198  157.6086  133.8079 H   0  0  0  0  0  0  0  0  0  0  0  0
  146.2484  156.9827  132.7497 H   0  0  0  0  0  0  0  0  0  0  0  0
  142.6489  155.6116  135.7286 H   0  0  0  0  0  0  0  0  0  0  0  0
  141.9826  157.2257  135.2514 H   0  0  0  0  0  0  0  0  0  0  0  0
  140.6789  154.8556  134.9216 H   0  0  0  0  0  0  0  0  0  0  0  0
  142.0250  155.5140  132.4810 H   0  0  0  0  0  0  0  0  0  0  0  0
  139.0633  156.0739  133.7962 H   0  0  0  0  0  0  0  0  0  0  0  0
  140.0570  157.4079  134.4918 H   0  0  0  0  0  0  0  0  0  0  0  0
  141.1880  156.6900  132.2260 H   0  0  0  0  0  0  0  0  0  0  0  0
  1  2  1  0
  2  3  2  0
  2  4  1  0
  4  5  2  0
  5  6  1  0
  6  7  2  0
  7  8  1  0
  8  9  2  0
  9 10  1  0
 10 11  1  0
 10 12  1  0
  9 13  1  0
 13 14  2  0
 14 15  1  0
 15 16  1  0
 16 17  2  0
 16 18  1  0
 18 19  1  0
 19 20  1  0
 20 21  1  0
 20 22  1  0
 22 23  1  0
 15  4  1  0
 14  6  1  0
  1 24  1  0
  1 25  1  0
  5 26  1  0
  7 27  1  0
  8 28  1  0
 10 29  1  0
 13 30  1  0
 19 31  1  0
 19 32  1  0
 20 33  1  1
 21 34  1  0
 22 35  1  0
 22 36  1  0
 23 37  1  0
M  END
>  <UniqueID>  (57) 
55

>  <SMILES>  (57) 
NC(=O)c1cc2ccc(C(F)F)cc2n1C(=O)OC[C@H](O)CO

>  <Energy>  (57) 
72.7140365303491

>  <Genealogy>  (57) 
NC(=O)c1cc2ccc(C(F)F)cc2n1C(=O)OC[C@H](O)CO (chirality)
NC(=O)c1cc2ccc(C(F)F)cc2n1C(=O)OC[C@H](O)CO (3D coordinates assigned)
NC(=O)c1cc2ccc(C(F)F)cc2n1C(=O)OC[C@H](O)CO (optimized conformer: 72.7140365303491 kcal/mol)

>  <smiles>  (57) 
NC(=O)c1cc2ccc(C(F)F)cc2n1C(=O)OCC(O)CO

>  <score_type>  (57) 
oracle

>  <origin>  (57) 
adg

>  <m_score__min__energy>  (57) 
-6.1399999999999997

>  <m_primary>  (57) 
energy

$$$$
60:0
     RDKit          3D

 31 32  0  0  0  0  0  0  0  0999 V2000
  148.2220  157.4680  134.3340 N   0  0  0  0  0  0  0  0  0  0  0  0
  147.6540  158.5810  133.6430 C   0  0  0  0  0  0  0  0  0  0  0  0
  148.3940  159.3010  132.9210 O   0  0  0  0  0  0  0  0  0  0  0  0
  146.2070  158.8640  133.7080 C   0  0  0  0  0  0  0  0  0  0  0  0
  145.6790  160.1530  133.7240 C   0  0  0  0  0  0  0  0  0  0  0  0
  144.3140  159.9850  133.7200 C   0  0  0  0  0  0  0  0  0  0  0  0
  143.2980  160.9350  133.7330 C   0  0  0  0  0  0  0  0  0  0  0  0
  141.9690  160.4800  133.7550 C   0  0  0  0  0  0  0  0  0  0  0  0
  141.6790  159.0920  133.7930 C   0  0  0  0  0  0  0  0  0  0  0  0
  140.2480  158.6140  133.7810 C   0  0  0  0  0  0  0  0  0  0  0  0
  140.1640  157.3330  133.2640 F   0  0  0  0  0  0  0  0  0  0  0  0
  139.4620  159.4460  133.0030 F   0  0  0  0  0  0  0  0  0  0  0  0
  139.7600  158.6120  135.0730 F   0  0  0  0  0  0  0  0  0  0  0  0
  142.7400  158.1560  133.7570 C   0  0  0  0  0  0  0  0  0  0  0  0
  144.0550  158.6390  133.7120 C   0  0  0  0  0  0  0  0  0  0  0  0
  145.2100  157.9350  133.7070 N   0  0  0  0  0  0  0  0  0  0  0  0
  145.3440  156.5070  133.8020 C   0  0  0  0  0  0  0  0  0  0  0  0
  145.2030  155.7920  132.7720 O   0  0  0  0  0  0  0  0  0  0  0  0
  145.6320  155.9150  135.0340 O   0  0  0  0  0  0  0  0  0  0  0  0
  145.7230  154.5070  135.2100 C   0  0  0  0  0  0  0  0  0  0  0  0
  146.9490  154.1890  135.9970 C   0  0  0  0  0  0  0  0  0  0  0  0
  147.9200  154.9900  136.0060 O   0  0  0  0  0  0  0  0  0  0  0  0
  147.0030  153.0340  136.7660 O   0  0  0  0  0  0  0  0  0  0  0  0
  147.6160  156.7560  134.7980 H   0  0  0  0  0  0  0  0  0  0  0  0
  149.2530  157.3060  134.3090 H   0  0  0  0  0  0  0  0  0  0  0  0
  146.2349  161.1021  133.7370 H   0  0  0  0  0  0  0  0  0  0  0  0
  143.5283  162.0106  133.7263 H   0  0  0  0  0  0  0  0  0  0  0  0
  141.1444  161.2080  133.7426 H   0  0  0  0  0  0  0  0  0  0  0  0
  142.5374  157.0749  133.7642 H   0  0  0  0  0  0  0  0  0  0  0  0
  144.8353  154.1457  135.7499 H   0  0  0  0  0  0  0  0  0  0  0  0
  145.7766  154.0147  134.2278 H   0  0  0  0  0  0  0  0  0  0  0  0
  1  2  1  0
  2  3  2  0
  2  4  1  0
  4  5  2  0
  5  6  1  0
  6  7  2  0
  7  8  1  0
  8  9  2  0
  9 10  1  0
 10 11  1  0
 10 12  1  0
 10 13  1  0
  9 14  1  0
 14 15  2  0
 15 16  1  0
 16 17  1  0
 17 18  2  0
 17 19  1  0
 19 20  1  0
 20 21  1  0
 21 22  2  0
 21 23  1  0
 16  4  1  0
 15  6  1  0
  1 24  1  0
  1 25  1  0
  5 26  1  0
  7 27  1  0
  8 28  1  0
 14 29  1  0
 20 30  1  0
 20 31  1  0
M  CHG  1  23  -1
M  END
>  <UniqueID>  (58) 
56

>  <SMILES>  (58) 
NC(=O)c1cc2ccc(C(F)(F)F)cc2n1C(=O)OCC(=O)[O-]

>  <Energy>  (58) 
68.26411432299757

>  <Genealogy>  (58) 
NC(=O)c1cc2ccc(C(F)(F)F)cc2n1C(=O)OCC(=O)[O-] (protonated)
NC(=O)c1cc2ccc(C(F)(F)F)cc2n1C(=O)OCC(=O)[O-] (3D coordinates assigned)
NC(=O)c1cc2ccc(C(F)(F)F)cc2n1C(=O)OCC(=O)[O-] (optimized conformer: 68.26411432299757 kcal/mol)

>  <smiles>  (58) 
NC(=O)c1cc2ccc(C(F)(F)F)cc2n1C(=O)OCC(=O)O

>  <score_type>  (58) 
oracle

>  <origin>  (58) 
adg

>  <m_score__min__energy>  (58) 
-5.7699999999999996

>  <m_primary>  (58) 
energy

$$$$
61:0
     RDKit          3D

 40 41  0  0  0  0  0  0  0  0999 V2000
  149.5180  157.3580  132.2230 N   0  0  0  0  0  0  0  0  0  0  0  0
  149.1170  158.7260  132.3140 C   0  0  0  0  0  0  0  0  0  0  0  0
  149.9390  159.6310  132.0170 O   0  0  0  0  0  0  0  0  0  0  0  0
  147.7580  159.0620  132.7890 C   0  0  0  0  0  0  0  0  0  0  0  0
  147.3270  160.3660  133.0230 C   0  0  0  0  0  0  0  0  0  0  0  0
  146.0000  160.2560  133.3710 C   0  0  0  0  0  0  0  0  0  0  0  0
  145.0870  161.2350  133.7420 C   0  0  0  0  0  0  0  0  0  0  0  0
  143.7870  160.8290  134.0990 C   0  0  0  0  0  0  0  0  0  0  0  0
  143.4250  159.4570  134.0710 C   0  0  0  0  0  0  0  0  0  0  0  0
  142.0450  159.0340  134.4970 C   0  0  0  0  0  0  0  0  0  0  0  0
  141.8260  159.4180  135.8060 F   0  0  0  0  0  0  0  0  0  0  0  0
  141.0940  159.6210  133.6820 F   0  0  0  0  0  0  0  0  0  0  0  0
  144.3860  158.4880  133.7060 C   0  0  0  0  0  0  0  0  0  0  0  0
  145.6650  158.9230  133.3400 C   0  0  0  0  0  0  0  0  0  0  0  0
  146.7380  158.1760  132.9930 N   0  0  0  0  0  0  0  0  0  0  0  0
  146.7980  156.7410  132.9700 C   0  0  0  0  0  0  0  0  0  0  0  0
  147.0770  156.1380  131.8940 O   0  0  0  0  0  0  0  0  0  0  0  0
  146.4440  155.9960  134.1390 N   0  0  0  0  0  0  0  0  0  0  0  0
  147.2280  154.8900  134.6800 C   0  0  0  0  0  0  0  0  0  0  0  0
  146.5040  154.2370  135.8220 C   0  0  0  0  0  0  0  0  0  0  0  0
  145.3080  154.5670  136.0460 O   0  0  0  0  0  0  0  0  0  0  0  0
  147.1420  153.3080  136.7170 N   0  0  0  0  0  0  0  0  0  0  0  0
  147.8170  153.5720  137.9950 C   0  0  1  0  0  0  0  0  0  0  0  0
  146.9440  153.1470  139.1880 C   0  0  0  0  0  0  0  0  0  0  0  0
  145.5800  153.2340  138.8810 O   0  0  0  0  0  0  0  0  0  0  0  0
  149.2210  153.0260  138.0340 C   0  0  0  0  0  0  0  0  0  0  0  0
  149.6020  152.2290  137.1360 O   0  0  0  0  0  0  0  0  0  0  0  0
  150.1310  153.4440  138.9990 O   0  0  0  0  0  0  0  0  0  0  0  0
  149.1080  156.7250  131.5030 H   0  0  0  0  0  0  0  0  0  0  0  0
  147.9215  161.2883  132.9459 H   0  0  0  0  0  0  0  0  0  0  0  0
  145.3717  162.2974  133.7565 H   0  0  0  0  0  0  0  0  0  0  0  0
  143.0450  161.5822  134.4024 H   0  0  0  0  0  0  0  0  0  0  0  0
  141.9661  157.9400  134.4134 H   0  0  0  0  0  0  0  0  0  0  0  0
  144.1351  157.4170  133.7093 H   0  0  0  0  0  0  0  0  0  0  0  0
  147.3984  154.1463  133.8876 H   0  0  0  0  0  0  0  0  0  0  0  0
  148.1879  155.2823  135.0470 H   0  0  0  0  0  0  0  0  0  0  0  0
  147.9438  154.6609  138.0860 H   0  0  0  0  0  0  0  0  0  0  0  0
  147.1849  152.1075  139.4552 H   0  0  0  0  0  0  0  0  0  0  0  0
  147.1532  153.8251  140.0285 H   0  0  0  0  0  0  0  0  0  0  0  0
  145.5160  153.7810  138.0540 H   0  0  0  0  0  0  0  0  0  0  0  0
  1  2  1  0
  2  3  2  0
  2  4  1  0
  4  5  2  0
  5  6  1  0
  6  7  2  0
  7  8  1  0
  8  9  2  0
  9 10  1  0
 10 11  1  0
 10 12  1  0
  9 13  1  0
 13 14  2  0
 14 15  1  0
 15 16  1  0
 16 17  2  0
 16 18  1  0
 18 19  1  0
 19 20  1  0
 20 21  2  0
 20 22  1  0
 22 23  1  0
 23 24  1  0
 24 25  1  0
 23 26  1  0
 26 27  2  0
 26 28  1  0
 15  4  1  0
 14  6  1  0
  1 29  1  0
  5 30  1  0
  7 31  1  0
  8 32  1  0
 10 33  1  0
 13 34  1  0
 19 35  1  0
 19 36  1  0
 23 37  1  1
 24 38  1  0
 24 39  1  0
 25 40  1  0
M  CHG  4   1  -1  18  -1  22  -1  28  -1
M  END
>  <UniqueID>  (59) 
57

>  <SMILES>  (59) 
[NH-]C(=O)c1cc2ccc(C(F)F)cc2n1C(=O)[N-]CC(=O)[N-][C@@H](CO)C(=O)[O-]

>  <Energy>  (59) 
79.04581552021598

>  <Genealogy>  (59) 
[NH-]C(=O)c1cc2ccc(C(F)F)cc2n1C(=O)[N-]CC(=O)[N-]C(CO)C(=O)[O-] (protonated)
[NH-]C(=O)c1cc2ccc(C(F)F)cc2n1C(=O)[N-]CC(=O)[N-][C@@H](CO)C(=O)[O-] (chirality)
[NH-]C(=O)c1cc2ccc(C(F)F)cc2n1C(=O)[N-]CC(=O)[N-][C@@H](CO)C(=O)[O-] (3D coordinates assigned)
[NH-]C(=O)c1cc2ccc(C(F)F)cc2n1C(=O)[N-]CC(=O)[N-][C@@H](CO)C(=O)[O-] (optimized conformer: 79.04581552021598 kcal/mol)

>  <smiles>  (59) 
NC(=O)c1cc2ccc(C(F)F)cc2n1C(=O)NCC(=O)NC(CO)C(=O)O

>  <score_type>  (59) 
oracle

>  <origin>  (59) 
adg

>  <m_score__min__energy>  (59) 
-6.6900000000000004

>  <m_primary>  (59) 
energy

$$$$
62:0
     RDKit          3D

 42 43  0  0  0  0  0  0  0  0999 V2000
  143.0320  154.2420  133.4970 N   0  0  0  0  0  0  0  0  0  0  0  0
  143.7780  155.1080  132.6470 C   0  0  0  0  0  0  0  0  0  0  0  0
  143.2890  156.2130  132.2920 O   0  0  0  0  0  0  0  0  0  0  0  0
  145.1530  154.7180  132.2080 C   0  0  0  0  0  0  0  0  0  0  0  0
  146.0500  155.8170  132.3530 O   0  0  0  0  0  0  0  0  0  0  0  0
  146.1180  156.6070  133.5080 C   0  0  0  0  0  0  0  0  0  0  0  0
  146.2450  156.0680  134.6410 O   0  0  0  0  0  0  0  0  0  0  0  0
  146.0540  158.0380  133.3970 N   0  0  0  0  0  0  0  0  0  0  0  0
  147.0740  158.8910  133.1010 C   0  0  0  0  0  0  0  0  0  0  0  0
  148.4310  158.4910  132.6680 C   0  0  0  0  0  0  0  0  0  0  0  0
  148.6280  157.3190  131.8750 N   0  0  0  0  0  0  0  0  0  0  0  0
  149.4330  159.1670  133.0220 O   0  0  0  0  0  0  0  0  0  0  0  0
  146.6380  160.2140  133.1680 C   0  0  0  0  0  0  0  0  0  0  0  0
  145.3090  160.1420  133.5150 C   0  0  0  0  0  0  0  0  0  0  0  0
  144.3860  161.1590  133.7270 C   0  0  0  0  0  0  0  0  0  0  0  0
  143.0800  160.7990  134.1020 C   0  0  0  0  0  0  0  0  0  0  0  0
  142.7220  159.4330  134.2750 C   0  0  0  0  0  0  0  0  0  0  0  0
  141.3970  159.0270  134.6730 N   0  0  0  0  0  0  0  0  0  0  0  0
  140.3940  158.4010  133.8070 C   0  0  0  0  0  0  0  0  0  0  0  0
  140.2270  156.9030  134.1400 C   0  0  2  0  0  0  0  0  0  0  0  0
  141.4530  156.3440  134.5430 O   0  0  0  0  0  0  0  0  0  0  0  0
  139.6200  156.0850  132.9850 C   0  0  0  0  0  0  0  0  0  0  0  0
  140.4160  154.9740  132.6700 O   0  0  0  0  0  0  0  0  0  0  0  0
  143.6930  158.4330  134.0410 C   0  0  0  0  0  0  0  0  0  0  0  0
  144.9800  158.8190  133.6480 C   0  0  0  0  0  0  0  0  0  0  0  0
  142.0330  154.4430  133.7250 H   0  0  0  0  0  0  0  0  0  0  0  0
  145.5059  153.8780  132.8243 H   0  0  0  0  0  0  0  0  0  0  0  0
  145.1195  154.4212  131.1493 H   0  0  0  0  0  0  0  0  0  0  0  0
  147.8180  156.7710  131.5090 H   0  0  0  0  0  0  0  0  0  0  0  0
  149.5930  157.0210  131.6110 H   0  0  0  0  0  0  0  0  0  0  0  0
  147.2308  161.1219  132.9828 H   0  0  0  0  0  0  0  0  0  0  0  0
  144.6691  162.2149  133.6049 H   0  0  0  0  0  0  0  0  0  0  0  0
  142.3256  161.5830  134.2637 H   0  0  0  0  0  0  0  0  0  0  0  0
  141.0660  159.3090  135.6250 H   0  0  0  0  0  0  0  0  0  0  0  0
  139.4292  158.9100  133.9490 H   0  0  0  0  0  0  0  0  0  0  0  0
  140.7296  158.4909  132.7633 H   0  0  0  0  0  0  0  0  0  0  0  0
  139.5094  156.8518  134.9721 H   0  0  0  0  0  0  0  0  0  0  0  0
  141.8170  155.8240  133.7790 H   0  0  0  0  0  0  0  0  0  0  0  0
  138.6197  155.7360  133.2809 H   0  0  0  0  0  0  0  0  0  0  0  0
  139.5615  156.7314  132.0969 H   0  0  0  0  0  0  0  0  0  0  0  0
  141.3540  155.2950  132.6170 H   0  0  0  0  0  0  0  0  0  0  0  0
  143.4417  157.3694  134.1656 H   0  0  0  0  0  0  0  0  0  0  0  0
  1  2  1  0
  2  3  2  0
  2  4  1  0
  4  5  1  0
  5  6  1  0
  6  7  2  0
  6  8  1  0
  8  9  1  0
  9 10  1  0
 10 11  1  0
 10 12  2  0
  9 13  2  0
 13 14  1  0
 14 15  2  0
 15 16  1  0
 16 17  2  0
 17 18  1  0
 18 19  1  0
 19 20  1  0
 20 21  1  0
 20 22  1  0
 22 23  1  0
 17 24  1  0
 24 25  2  0
 25  8  1  0
 25 14  1  0
  1 26  1  0
  4 27  1  0
  4 28  1  0
 11 29  1  0
 11 30  1  0
 13 31  1  0
 15 32  1  0
 16 33  1  0
 18 34  1  0
 19 35  1  0
 19 36  1  0
 20 37  1  1
 21 38  1  0
 22 39  1  0
 22 40  1  0
 23 41  1  0
 24 42  1  0
M  CHG  1   1  -1
M  END
>  <UniqueID>  (60) 
58

>  <SMILES>  (60) 
[NH-]C(=O)COC(=O)n1c(C(N)=O)cc2ccc(NC[C@H](O)CO)cc21

>  <Energy>  (60) 
77.2200027841725

>  <Genealogy>  (60) 
[NH-]C(=O)COC(=O)n1c(C(N)=O)cc2ccc(NCC(O)CO)cc21 (protonated)
[NH-]C(=O)COC(=O)n1c(C(N)=O)cc2ccc(NC[C@H](O)CO)cc21 (chirality)
[NH-]C(=O)COC(=O)n1c(C(N)=O)cc2ccc(NC[C@H](O)CO)cc21 (3D coordinates assigned)
[NH-]C(=O)COC(=O)n1c(C(N)=O)cc2ccc(NC[C@H](O)CO)cc21 (optimized conformer: 77.2200027841725 kcal/mol)

>  <smiles>  (60) 
NC(=O)COC(=O)n1c(C(N)=O)cc2ccc(NCC(O)CO)cc21

>  <score_type>  (60) 
oracle

>  <origin>  (60) 
adg

>  <m_score__min__energy>  (60) 
-6.4699999999999998

>  <m_primary>  (60) 
energy

$$$$
63:0
     RDKit          3D

 37 38  0  0  0  0  0  0  0  0999 V2000
  144.2830  160.4660  134.1060 C   0  0  0  0  0  0  0  0  0  0  0  0
  145.5900  160.6490  133.4830 N   0  0  0  0  0  0  0  0  0  0  0  0
  146.5040  159.5690  133.2200 C   0  0  0  0  0  0  0  0  0  0  0  0
  147.8520  159.8110  132.8380 C   0  0  0  0  0  0  0  0  0  0  0  0
  148.7330  158.7420  132.5980 C   0  0  0  0  0  0  0  0  0  0  0  0
  148.2400  157.4480  132.7290 C   0  0  0  0  0  0  0  0  0  0  0  0
  148.8840  156.2370  132.6070 C   0  0  0  0  0  0  0  0  0  0  0  0
  147.9160  155.2730  132.8860 C   0  0  0  0  0  0  0  0  0  0  0  0
  148.1940  153.8200  132.9100 C   0  0  0  0  0  0  0  0  0  0  0  0
  147.2160  152.8750  133.3470 N   0  0  0  0  0  0  0  0  0  0  0  0
  149.3090  153.4010  132.4980 O   0  0  0  0  0  0  0  0  0  0  0  0
  146.7190  155.8650  133.1590 N   0  0  0  0  0  0  0  0  0  0  0  0
  145.5230  155.2390  133.6480 C   0  0  0  0  0  0  0  0  0  0  0  0
  145.5320  154.7100  134.7940 O   0  0  0  0  0  0  0  0  0  0  0  0
  144.3160  155.2150  132.8560 N   0  0  0  0  0  0  0  0  0  0  0  0
  143.3270  156.2810  133.0390 C   0  0  0  0  0  0  0  0  0  0  0  0
  144.0050  154.0780  131.9790 C   0  0  0  0  0  0  0  0  0  0  0  0
  144.4650  152.8000  132.6070 C   0  0  0  0  0  0  0  0  0  0  0  0
  144.1060  152.5040  133.7780 O   0  0  0  0  0  0  0  0  0  0  0  0
  145.2810  151.9270  131.8950 O   0  0  0  0  0  0  0  0  0  0  0  0
  146.9400  157.1960  133.0760 C   0  0  0  0  0  0  0  0  0  0  0  0
  146.0490  158.2380  133.3510 C   0  0  0  0  0  0  0  0  0  0  0  0
  144.3931  160.4814  135.2004 H   0  0  0  0  0  0  0  0  0  0  0  0
  143.6109  161.2788  133.7936 H   0  0  0  0  0  0  0  0  0  0  0  0
  143.8599  159.4999  133.7936 H   0  0  0  0  0  0  0  0  0  0  0  0
  145.8720  161.6240  133.2270 H   0  0  0  0  0  0  0  0  0  0  0  0
  148.2094  160.8456  132.7291 H   0  0  0  0  0  0  0  0  0  0  0  0
  149.7804  158.9234  132.3152 H   0  0  0  0  0  0  0  0  0  0  0  0
  149.9386  156.0663  132.3450 H   0  0  0  0  0  0  0  0  0  0  0  0
  146.2250  153.1510  133.5130 H   0  0  0  0  0  0  0  0  0  0  0  0
  147.4620  151.8610  133.4050 H   0  0  0  0  0  0  0  0  0  0  0  0
  143.1676  156.4528  134.1138 H   0  0  0  0  0  0  0  0  0  0  0  0
  143.6940  157.2060  132.5703 H   0  0  0  0  0  0  0  0  0  0  0  0
  142.3771  155.9843  132.5703 H   0  0  0  0  0  0  0  0  0  0  0  0
  142.9182  154.0319  131.8154 H   0  0  0  0  0  0  0  0  0  0  0  0
  144.5239  154.2131  131.0186 H   0  0  0  0  0  0  0  0  0  0  0  0
  145.0157  158.0258  133.6627 H   0  0  0  0  0  0  0  0  0  0  0  0
  1  2  1  0
  2  3  1  0
  3  4  2  0
  4  5  1  0
  5  6  2  0
  6  7  1  0
  7  8  2  0
  8  9  1  0
  9 10  1  0
  9 11  2  0
  8 12  1  0
 12 13  1  0
 13 14  2  0
 13 15  1  0
 15 16  1  0
 15 17  1  0
 17 18  1  0
 18 19  2  0
 18 20  1  0
 12 21  1  0
 21 22  2  0
 22  3  1  0
 21  6  1  0
  1 23  1  0
  1 24  1  0
  1 25  1  0
  2 26  1  0
  4 27  1  0
  5 28  1  0
  7 29  1  0
 10 30  1  0
 10 31  1  0
 16 32  1  0
 16 33  1  0
 16 34  1  0
 17 35  1  0
 17 36  1  0
 22 37  1  0
M  CHG  1  20  -1
M  END
>  <UniqueID>  (61) 
59

>  <SMILES>  (61) 
CNc1ccc2cc(C(N)=O)n(C(=O)N(C)CC(=O)[O-])c2c1

>  <Energy>  (61) 
73.21633811421681

>  <Genealogy>  (61) 
CNc1ccc2cc(C(N)=O)n(C(=O)N(C)CC(=O)[O-])c2c1 (protonated)
CNc1ccc2cc(C(N)=O)n(C(=O)N(C)CC(=O)[O-])c2c1 (3D coordinates assigned)
CNc1ccc2cc(C(N)=O)n(C(=O)N(C)CC(=O)[O-])c2c1 (optimized conformer: 73.21633811421681 kcal/mol)

>  <smiles>  (61) 
CNc1ccc2cc(C(N)=O)n(C(=O)N(C)CC(=O)O)c2c1

>  <score_type>  (61) 
oracle

>  <origin>  (61) 
adg

>  <m_score__min__energy>  (61) 
-6.3200000000000003

>  <m_primary>  (61) 
energy

$$$$
64:0
     RDKit          3D

 56 59  0  0  0  0  0  0  0  0999 V2000
  141.8880  149.1300  131.6480 N   0  0  0  0  0  0  0  0  0  0  0  0
  141.2980  149.8480  132.7280 C   0  0  0  0  0  0  0  0  0  0  0  0
  140.7600  149.2080  133.6710 O   0  0  0  0  0  0  0  0  0  0  0  0
  141.3590  151.3250  132.7860 C   0  0  0  0  0  0  0  0  0  0  0  0
  140.2300  152.1390  132.8360 C   0  0  0  0  0  0  0  0  0  0  0  0
  140.7100  153.4160  133.0110 C   0  0  0  0  0  0  0  0  0  0  0  0
  140.0240  154.6210  133.1400 C   0  0  0  0  0  0  0  0  0  0  0  0
  140.7820  155.7930  133.3060 C   0  0  0  0  0  0  0  0  0  0  0  0
  142.2010  155.7440  133.3270 C   0  0  0  0  0  0  0  0  0  0  0  0
  142.9910  156.9850  133.4910 C   0  0  0  0  0  0  0  0  0  0  0  0
  142.3460  158.2160  133.6930 C   0  0  0  0  0  0  0  0  0  0  0  0
  143.0900  159.3910  133.8120 C   0  0  0  0  0  0  0  0  0  0  0  0
  144.4890  159.3590  133.7000 C   0  0  0  0  0  0  0  0  0  0  0  0
  145.2810  160.6000  133.7840 C   0  0  0  0  0  0  0  0  0  0  0  0
  144.6860  161.6930  133.9730 O   0  0  0  0  0  0  0  0  0  0  0  0
  146.7110  160.6040  133.6650 N   0  0  0  0  0  0  0  0  0  0  0  0
  147.4790  160.1120  132.5230 C   0  0  0  0  0  0  0  0  0  0  0  0
  148.6310  159.2080  132.9900 C   0  0  0  0  0  0  0  0  0  0  0  0
  148.7330  157.8960  132.1950 C   0  0  0  0  0  0  0  0  0  0  0  0
  148.4820  156.7130  133.0580 N   0  0  0  0  0  0  0  0  0  0  0  0
  147.4760  155.8220  132.4450 C   0  0  0  0  0  0  0  0  0  0  0  0
  147.2740  154.5590  133.3090 C   0  0  0  0  0  0  0  0  0  0  0  0
  147.6430  154.7340  134.6680 O   0  0  0  0  0  0  0  0  0  0  0  0
  147.2410  156.0060  135.1230 C   0  0  0  0  0  0  0  0  0  0  0  0
  148.0910  157.0950  134.4410 C   0  0  0  0  0  0  0  0  0  0  0  0
  145.1390  158.1290  133.5330 C   0  0  0  0  0  0  0  0  0  0  0  0
  144.3960  156.9510  133.4270 C   0  0  0  0  0  0  0  0  0  0  0  0
  142.8550  154.5020  133.1860 C   0  0  0  0  0  0  0  0  0  0  0  0
  142.0770  153.3490  133.0500 C   0  0  0  0  0  0  0  0  0  0  0  0
  142.4920  152.0730  132.9100 N   0  0  0  0  0  0  0  0  0  0  0  0
  143.8560  151.6270  132.8560 C   0  0  0  0  0  0  0  0  0  0  0  0
  144.7750  152.3250  133.3560 O   0  0  0  0  0  0  0  0  0  0  0  0
  144.1700  150.4080  132.2690 O   0  0  0  0  0  0  0  0  0  0  0  0
  142.8520  148.7320  131.7280 H   0  0  0  0  0  0  0  0  0  0  0  0
  139.1784  151.8271  132.7532 H   0  0  0  0  0  0  0  0  0  0  0  0
  138.9248  154.6545  133.1129 H   0  0  0  0  0  0  0  0  0  0  0  0
  140.2699  156.7597  133.4210 H   0  0  0  0  0  0  0  0  0  0  0  0
  141.2486  158.2545  133.7578 H   0  0  0  0  0  0  0  0  0  0  0  0
  142.5774  160.3470  133.9945 H   0  0  0  0  0  0  0  0  0  0  0  0
  146.8141  159.5367  131.8619 H   0  0  0  0  0  0  0  0  0  0  0  0
  147.9019  160.9730  131.9847 H   0  0  0  0  0  0  0  0  0  0  0  0
  149.5760  159.7596  132.8768 H   0  0  0  0  0  0  0  0  0  0  0  0
  148.4315  158.9400  134.0380 H   0  0  0  0  0  0  0  0  0  0  0  0
  147.9894  157.9109  131.3845 H   0  0  0  0  0  0  0  0  0  0  0  0
  149.7530  157.8169  131.7908 H   0  0  0  0  0  0  0  0  0  0  0  0
  146.5200  156.3595  132.3606 H   0  0  0  0  0  0  0  0  0  0  0  0
  147.8298  155.5185  131.4487 H   0  0  0  0  0  0  0  0  0  0  0  0
  146.2111  154.2782  133.2709 H   0  0  0  0  0  0  0  0  0  0  0  0
  147.9289  153.7779  132.8955 H   0  0  0  0  0  0  0  0  0  0  0  0
  146.1803  156.1634  134.8779 H   0  0  0  0  0  0  0  0  0  0  0  0
  147.3814  156.0639  136.2125 H   0  0  0  0  0  0  0  0  0  0  0  0
  147.5080  158.0269  134.4005 H   0  0  0  0  0  0  0  0  0  0  0  0
  149.0109  157.2259  135.0298 H   0  0  0  0  0  0  0  0  0  0  0  0
  146.2373  158.0910  133.4853 H   0  0  0  0  0  0  0  0  0  0  0  0
  144.9132  155.9896  133.2925 H   0  0  0  0  0  0  0  0  0  0  0  0
  143.9534  154.4424  133.1832 H   0  0  0  0  0  0  0  0  0  0  0  0
  1  2  1  0
  2  3  2  0
  2  4  1  0
  4  5  2  0
  5  6  1  0
  6  7  2  0
  7  8  1  0
  8  9  2  0
  9 10  1  0
 10 11  2  0
 11 12  1  0
 12 13  2  0
 13 14  1  0
 14 15  2  0
 14 16  1  0
 16 17  1  0
 17 18  1  0
 18 19  1  0
 19 20  1  0
 20 21  1  0
 21 22  1  0
 22 23  1  0
 23 24  1  0
 24 25  1  0
 13 26  1  0
 26 27  2  0
  9 28  1  0
 28 29  2  0
 29 30  1  0
 30 31  1  0
 31 32  2  0
 31 33  1  0
 30  4  1  0
 29  6  1  0
 27 10  1  0
 25 20  1  0
  1 34  1  0
  5 35  1  0
  7 36  1  0
  8 37  1  0
 11 38  1  0
 12 39  1  0
 17 40  1  0
 17 41  1  0
 18 42  1  0
 18 43  1  0
 19 44  1  0
 19 45  1  0
 21 46  1  0
 21 47  1  0
 22 48  1  0
 22 49  1  0
 24 50  1  0
 24 51  1  0
 25 52  1  0
 25 53  1  0
 26 54  1  0
 27 55  1  0
 28 56  1  0
M  CHG  3   1  -1  16  -1  33  -1
M  END
>  <UniqueID>  (62) 
60

>  <SMILES>  (62) 
[NH-]C(=O)c1cc2ccc(-c3ccc(C(=O)[N-]CCCN4CCOCC4)cc3)cc2n1C(=O)[O-]

>  <Energy>  (62) 
117.79167021797102

>  <Genealogy>  (62) 
[NH-]C(=O)c1cc2ccc(-c3ccc(C(=O)[N-]CCCN4CCOCC4)cc3)cc2n1C(=O)[O-] (protonated)
[NH-]C(=O)c1cc2ccc(-c3ccc(C(=O)[N-]CCCN4CCOCC4)cc3)cc2n1C(=O)[O-] (3D coordinates assigned)
[NH-]C(=O)c1cc2ccc(-c3ccc(C(=O)[N-]CCCN4CCOCC4)cc3)cc2n1C(=O)[O-] (nonaromatic ring conformer: 117.79167021797102 kcal/mol)

>  <smiles>  (62) 
NC(=O)c1cc2ccc(-c3ccc(C(=O)NCCCN4CCOCC4)cc3)cc2n1C(=O)O

>  <score_type>  (62) 
oracle

>  <origin>  (62) 
adg

>  <m_score__min__energy>  (62) 
-9.9600000000000009

>  <m_primary>  (62) 
energy

$$$$
65:0
     RDKit          3D

 41 42  0  0  0  0  0  0  0  0999 V2000
  141.7440  160.8260  133.9300 C   0  0  0  0  0  0  0  0  0  0  0  0
  140.7470  159.6580  133.9110 C   0  0  1  0  0  0  0  0  0  0  0  0
  141.1260  158.6000  132.8950 C   0  0  0  0  0  0  0  0  0  0  0  0
  140.6510  158.6510  131.7280 O   0  0  0  0  0  0  0  0  0  0  0  0
  142.0470  157.5500  133.2280 N   0  0  0  0  0  0  0  0  0  0  0  0
  141.7940  156.2180  133.3550 C   0  0  0  0  0  0  0  0  0  0  0  0
  140.4590  155.5900  133.3540 C   0  0  0  0  0  0  0  0  0  0  0  0
  139.2900  156.3350  133.0120 N   0  0  0  0  0  0  0  0  0  0  0  0
  140.3400  154.3870  133.7110 O   0  0  0  0  0  0  0  0  0  0  0  0
  142.9800  155.5090  133.5330 C   0  0  0  0  0  0  0  0  0  0  0  0
  143.9760  156.4610  133.5290 C   0  0  0  0  0  0  0  0  0  0  0  0
  145.3540  156.3210  133.6630 C   0  0  0  0  0  0  0  0  0  0  0  0
  146.1440  157.4810  133.5970 C   0  0  0  0  0  0  0  0  0  0  0  0
  145.5470  158.7510  133.3870 C   0  0  0  0  0  0  0  0  0  0  0  0
  146.4020  159.9900  133.3390 C   0  0  0  0  0  0  0  0  0  0  0  0
  147.8310  159.6680  132.9050 C   0  0  0  0  0  0  0  0  0  0  0  0
  148.2790  160.6000  131.9850 F   0  0  0  0  0  0  0  0  0  0  0  0
  148.6780  159.6590  133.9990 F   0  0  0  0  0  0  0  0  0  0  0  0
  144.1440  158.8540  133.2630 C   0  0  0  0  0  0  0  0  0  0  0  0
  143.3850  157.6840  133.3450 C   0  0  0  0  0  0  0  0  0  0  0  0
  140.6060  159.0800  135.2640 N   0  0  0  0  0  0  0  0  0  0  0  0
  141.6090  159.3740  136.2950 C   0  0  0  0  0  0  0  0  0  0  0  0
  139.4980  158.2190  135.6090 C   0  0  0  0  0  0  0  0  0  0  0  0
  139.4690  157.6350  136.7240 O   0  0  0  0  0  0  0  0  0  0  0  0
  138.4430  158.0280  134.7240 O   0  0  0  0  0  0  0  0  0  0  0  0
  141.9737  161.0951  134.9715 H   0  0  0  0  0  0  0  0  0  0  0  0
  142.6693  160.5266  133.4160 H   0  0  0  0  0  0  0  0  0  0  0  0
  141.3031  161.6929  133.4160 H   0  0  0  0  0  0  0  0  0  0  0  0
  139.7708  160.0573  133.5987 H   0  0  0  0  0  0  0  0  0  0  0  0
  139.3310  157.3680  132.8650 H   0  0  0  0  0  0  0  0  0  0  0  0
  138.3590  155.8640  132.9780 H   0  0  0  0  0  0  0  0  0  0  0  0
  143.0964  154.4216  133.6514 H   0  0  0  0  0  0  0  0  0  0  0  0
  145.8109  155.3321  133.8159 H   0  0  0  0  0  0  0  0  0  0  0  0
  147.2355  157.4039  133.7092 H   0  0  0  0  0  0  0  0  0  0  0  0
  145.9624  160.7000  132.6230 H   0  0  0  0  0  0  0  0  0  0  0  0
  146.4377  160.4239  134.3492 H   0  0  0  0  0  0  0  0  0  0  0  0
  147.8304  158.6714  132.4393 H   0  0  0  0  0  0  0  0  0  0  0  0
  143.6614  159.8299  133.1060 H   0  0  0  0  0  0  0  0  0  0  0  0
  141.1606  159.2426  137.2908 H   0  0  0  0  0  0  0  0  0  0  0  0
  142.4616  158.6880  136.1833 H   0  0  0  0  0  0  0  0  0  0  0  0
  141.9563  160.4117  136.1833 H   0  0  0  0  0  0  0  0  0  0  0  0
  1  2  1  0
  2  3  1  0
  3  4  2  0
  3  5  1  0
  5  6  1  0
  6  7  1  0
  7  8  1  0
  7  9  2  0
  6 10  2  0
 10 11  1  0
 11 12  2  0
 12 13  1  0
 13 14  2  0
 14 15  1  0
 15 16  1  0
 16 17  1  0
 16 18  1  0
 14 19  1  0
 19 20  2  0
  2 21  1  0
 21 22  1  0
 21 23  1  0
 23 24  2  0
 23 25  1  0
 20  5  1  0
 20 11  1  0
  1 26  1  0
  1 27  1  0
  1 28  1  0
  2 29  1  6
  8 30  1  0
  8 31  1  0
 10 32  1  0
 12 33  1  0
 13 34  1  0
 15 35  1  0
 15 36  1  0
 16 37  1  0
 19 38  1  0
 22 39  1  0
 22 40  1  0
 22 41  1  0
M  CHG  1  25  -1
M  END
>  <UniqueID>  (63) 
61

>  <SMILES>  (63) 
C[C@@H](C(=O)n1c(C(N)=O)cc2ccc(CC(F)F)cc21)N(C)C(=O)[O-]

>  <Energy>  (63) 
76.40403570443974

>  <Genealogy>  (63) 
C[C@@H](C(=O)n1c(C(N)=O)cc2ccc(CC(F)F)cc21)N(C)C(=O)[O-] (protonated)
C[C@@H](C(=O)n1c(C(N)=O)cc2ccc(CC(F)F)cc21)N(C)C(=O)[O-] (3D coordinates assigned)
C[C@@H](C(=O)n1c(C(N)=O)cc2ccc(CC(F)F)cc21)N(C)C(=O)[O-] (optimized conformer: 76.40403570443974 kcal/mol)

>  <smiles>  (63) 
C[C@@H](C(=O)n1c(C(N)=O)cc2ccc(CC(F)F)cc21)N(C)C(=O)O

>  <score_type>  (63) 
oracle

>  <origin>  (63) 
adg

>  <m_score__min__energy>  (63) 
-6.5499999999999998

>  <m_primary>  (63) 
energy

$$$$
66:0
     RDKit          3D

 42 43  0  0  0  0  0  0  0  0999 V2000
  138.7320  156.7360  133.2560 N   0  0  0  0  0  0  0  0  0  0  0  0
  139.3700  157.6630  134.1360 C   0  0  0  0  0  0  0  0  0  0  0  0
  138.7070  158.1770  135.0750 O   0  0  0  0  0  0  0  0  0  0  0  0
  140.8050  157.9880  134.0010 C   0  0  0  0  0  0  0  0  0  0  0  0
  141.2920  159.2890  133.9070 C   0  0  0  0  0  0  0  0  0  0  0  0
  142.6590  159.1610  133.8260 C   0  0  0  0  0  0  0  0  0  0  0  0
  143.6440  160.1380  133.7110 C   0  0  0  0  0  0  0  0  0  0  0  0
  144.9800  159.7180  133.6120 C   0  0  0  0  0  0  0  0  0  0  0  0
  145.3070  158.3380  133.5960 C   0  0  0  0  0  0  0  0  0  0  0  0
  146.7460  157.8930  133.5280 C   0  0  0  0  0  0  0  0  0  0  0  0
  147.0320  157.3350  132.2940 F   0  0  0  0  0  0  0  0  0  0  0  0
  147.0090  156.9460  134.5020 F   0  0  0  0  0  0  0  0  0  0  0  0
  147.5690  158.9860  133.7300 F   0  0  0  0  0  0  0  0  0  0  0  0
  144.2790  157.3780  133.7310 C   0  0  0  0  0  0  0  0  0  0  0  0
  142.9580  157.8230  133.8610 C   0  0  0  0  0  0  0  0  0  0  0  0
  141.8280  157.0890  133.9740 N   0  0  0  0  0  0  0  0  0  0  0  0
  141.7170  155.6550  133.9380 C   0  0  0  0  0  0  0  0  0  0  0  0
  141.0510  155.1060  133.0180 O   0  0  0  0  0  0  0  0  0  0  0  0
  142.2990  154.8080  135.0340 C   0  0  0  0  0  0  0  0  0  0  0  0
  142.4930  155.6200  136.3240 C   0  0  0  0  0  0  0  0  0  0  0  0
  141.3920  155.3390  137.3500 C   0  0  0  0  0  0  0  0  0  0  0  0
  140.2540  156.7630  137.4880 S   0  0  0  0  0  0  0  0  0  0  0  0
  141.5770  157.9870  137.7790 C   0  0  0  0  0  0  0  0  0  0  0  0
  140.9970  159.3960  137.8110 C   0  0  0  0  0  0  0  0  0  0  0  0
  140.3080  159.6580  136.6200 O   0  0  0  0  0  0  0  0  0  0  0  0
  137.7060  156.5620  133.3370 H   0  0  0  0  0  0  0  0  0  0  0  0
  139.2860  156.1490  132.5960 H   0  0  0  0  0  0  0  0  0  0  0  0
  140.7077  160.2210  133.8992 H   0  0  0  0  0  0  0  0  0  0  0  0
  143.3835  161.2066  133.6981 H   0  0  0  0  0  0  0  0  0  0  0  0
  145.7822  160.4677  133.5461 H   0  0  0  0  0  0  0  0  0  0  0  0
  144.5119  156.3030  133.7339 H   0  0  0  0  0  0  0  0  0  0  0  0
  141.6181  153.9685  135.2380 H   0  0  0  0  0  0  0  0  0  0  0  0
  143.2819  154.4406  134.7040 H   0  0  0  0  0  0  0  0  0  0  0  0
  143.4655  155.3575  136.7659 H   0  0  0  0  0  0  0  0  0  0  0  0
  142.4495  156.6877  136.0630 H   0  0  0  0  0  0  0  0  0  0  0  0
  140.8230  154.4520  137.0346 H   0  0  0  0  0  0  0  0  0  0  0  0
  141.8598  155.1654  138.3303 H   0  0  0  0  0  0  0  0  0  0  0  0
  142.0637  157.7731  138.7420 H   0  0  0  0  0  0  0  0  0  0  0  0
  142.3112  157.9210  136.9625 H   0  0  0  0  0  0  0  0  0  0  0  0
  140.3034  159.4851  138.6601 H   0  0  0  0  0  0  0  0  0  0  0  0
  141.8167  160.1213  137.9208 H   0  0  0  0  0  0  0  0  0  0  0  0
  139.3980  159.2810  136.7400 H   0  0  0  0  0  0  0  0  0  0  0  0
  1  2  1  0
  2  3  2  0
  2  4  1  0
  4  5  2  0
  5  6  1  0
  6  7  2  0
  7  8  1  0
  8  9  2  0
  9 10  1  0
 10 11  1  0
 10 12  1  0
 10 13  1  0
  9 14  1  0
 14 15  2  0
 15 16  1  0
 16 17  1  0
 17 18  2  0
 17 19  1  0
 19 20  1  0
 20 21  1  0
 21 22  1  0
 22 23  1  0
 23 24  1  0
 24 25  1  0
 16  4  1  0
 15  6  1  0
  1 26  1  0
  1 27  1  0
  5 28  1  0
  7 29  1  0
  8 30  1  0
 14 31  1  0
 19 32  1  0
 19 33  1  0
 20 34  1  0
 20 35  1  0
 21 36  1  0
 21 37  1  0
 23 38  1  0
 23 39  1  0
 24 40  1  0
 24 41  1  0
 25 42  1  0
M  END
>  <UniqueID>  (64) 
62

>  <SMILES>  (64) 
NC(=O)c1cc2ccc(C(F)(F)F)cc2n1C(=O)CCCSCCO

>  <Energy>  (64) 
71.46662038482017

>  <Genealogy>  (64) 
NC(=O)c1cc2ccc(C(F)(F)F)cc2n1C(=O)CCCSCCO (3D coordinates assigned)
NC(=O)c1cc2ccc(C(F)(F)F)cc2n1C(=O)CCCSCCO (optimized conformer: 71.46662038482017 kcal/mol)

>  <smiles>  (64) 
NC(=O)c1cc2ccc(C(F)(F)F)cc2n1C(=O)CCCSCCO

>  <score_type>  (64) 
oracle

>  <origin>  (64) 
adg

>  <m_score__min__energy>  (64) 
-6.7999999999999998

>  <m_primary>  (64) 
energy

$$$$
67:0
     RDKit          3D

 44 45  0  0  0  0  0  0  0  0999 V2000
  149.4660  151.0500  132.7670 C   0  0  0  0  0  0  0  0  0  0  0  0
  148.5940  152.1560  133.1410 N   0  0  0  0  0  0  0  0  0  0  0  0
  148.9020  153.5110  132.7920 C   0  0  0  0  0  0  0  0  0  0  0  0
  149.9610  153.7810  132.1640 O   0  0  0  0  0  0  0  0  0  0  0  0
  147.9870  154.6220  133.2130 C   0  0  0  0  0  0  0  0  0  0  0  0
  148.4160  155.8940  132.6270 N   0  0  0  0  0  0  0  0  0  0  0  0
  147.7520  157.1440  132.8860 C   0  0  0  0  0  0  0  0  0  0  0  0
  148.4750  158.3640  132.9930 C   0  0  0  0  0  0  0  0  0  0  0  0
  147.8100  159.5730  133.2580 C   0  0  0  0  0  0  0  0  0  0  0  0
  146.4270  159.5390  133.4040 C   0  0  0  0  0  0  0  0  0  0  0  0
  145.5420  160.5530  133.6890 C   0  0  0  0  0  0  0  0  0  0  0  0
  144.2880  159.9490  133.7320 C   0  0  0  0  0  0  0  0  0  0  0  0
  143.0280  160.6970  133.9300 C   0  0  0  0  0  0  0  0  0  0  0  0
  141.9640  160.1070  134.6740 N   0  0  0  0  0  0  0  0  0  0  0  0
  142.8920  161.8640  133.4810 O   0  0  0  0  0  0  0  0  0  0  0  0
  144.3930  158.6120  133.4880 N   0  0  0  0  0  0  0  0  0  0  0  0
  143.3480  157.6280  133.5160 C   0  0  0  0  0  0  0  0  0  0  0  0
  143.5080  156.5610  134.1720 O   0  0  0  0  0  0  0  0  0  0  0  0
  142.1520  157.8650  132.8300 O   0  0  0  0  0  0  0  0  0  0  0  0
  140.9390  157.1630  133.0970 C   0  0  0  0  0  0  0  0  0  0  0  0
  139.7370  158.1040  132.9890 C   0  0  0  0  0  0  0  0  0  0  0  0
  139.3910  158.6010  134.2690 O   0  0  0  0  0  0  0  0  0  0  0  0
  139.8660  157.7370  135.2780 C   0  0  0  0  0  0  0  0  0  0  0  0
  145.7100  158.3770  133.2870 C   0  0  0  0  0  0  0  0  0  0  0  0
  146.3470  157.1560  133.0420 C   0  0  0  0  0  0  0  0  0  0  0  0
  149.8502  150.5627  133.6752 H   0  0  0  0  0  0  0  0  0  0  0  0
  148.8977  150.3201  132.1717 H   0  0  0  0  0  0  0  0  0  0  0  0
  150.3083  151.4323  132.1717 H   0  0  0  0  0  0  0  0  0  0  0  0
  147.7240  151.9520  133.6830 H   0  0  0  0  0  0  0  0  0  0  0  0
  146.9646  154.3955  132.8761 H   0  0  0  0  0  0  0  0  0  0  0  0
  148.0163  154.7090  134.3092 H   0  0  0  0  0  0  0  0  0  0  0  0
  149.2450  155.9000  131.9890 H   0  0  0  0  0  0  0  0  0  0  0  0
  149.5677  158.3611  132.8668 H   0  0  0  0  0  0  0  0  0  0  0  0
  148.3661  160.5178  133.3473 H   0  0  0  0  0  0  0  0  0  0  0  0
  145.7755  161.6159  133.8490 H   0  0  0  0  0  0  0  0  0  0  0  0
  141.4340  159.2900  134.2960 H   0  0  0  0  0  0  0  0  0  0  0  0
  140.8258  156.3468  132.3683 H   0  0  0  0  0  0  0  0  0  0  0  0
  140.9814  156.7577  134.1187 H   0  0  0  0  0  0  0  0  0  0  0  0
  139.9923  158.9459  132.3287 H   0  0  0  0  0  0  0  0  0  0  0  0
  138.8819  157.5495  132.5751 H   0  0  0  0  0  0  0  0  0  0  0  0
  139.6321  158.1624  136.2651 H   0  0  0  0  0  0  0  0  0  0  0  0
  139.3811  156.7547  135.1778 H   0  0  0  0  0  0  0  0  0  0  0  0
  140.9552  157.6201  135.1778 H   0  0  0  0  0  0  0  0  0  0  0  0
  145.7666  156.2242  132.9722 H   0  0  0  0  0  0  0  0  0  0  0  0
  1  2  1  0
  2  3  1  0
  3  4  2  0
  3  5  1  0
  5  6  1  0
  6  7  1  0
  7  8  2  0
  8  9  1  0
  9 10  2  0
 10 11  1  0
 11 12  2  0
 12 13  1  0
 13 14  1  0
 13 15  2  0
 12 16  1  0
 16 17  1  0
 17 18  2  0
 17 19  1  0
 19 20  1  0
 20 21  1  0
 21 22  1  0
 22 23  1  0
 16 24  1  0
 24 25  2  0
 25  7  1  0
 24 10  1  0
  1 26  1  0
  1 27  1  0
  1 28  1  0
  2 29  1  0
  5 30  1  0
  5 31  1  0
  6 32  1  0
  8 33  1  0
  9 34  1  0
 11 35  1  0
 14 36  1  0
 20 37  1  0
 20 38  1  0
 21 39  1  0
 21 40  1  0
 23 41  1  0
 23 42  1  0
 23 43  1  0
 25 44  1  0
M  CHG  1  14  -1
M  END
>  <UniqueID>  (65) 
63

>  <SMILES>  (65) 
CNC(=O)CNc1ccc2cc(C([NH-])=O)n(C(=O)OCCOC)c2c1

>  <Energy>  (65) 
76.91044789359013

>  <Genealogy>  (65) 
CNC(=O)CNc1ccc2cc(C([NH-])=O)n(C(=O)OCCOC)c2c1 (protonated)
CNC(=O)CNc1ccc2cc(C([NH-])=O)n(C(=O)OCCOC)c2c1 (3D coordinates assigned)
CNC(=O)CNc1ccc2cc(C([NH-])=O)n(C(=O)OCCOC)c2c1 (optimized conformer: 76.91044789359013 kcal/mol)

>  <smiles>  (65) 
CNC(=O)CNc1ccc2cc(C(N)=O)n(C(=O)OCCOC)c2c1

>  <score_type>  (65) 
oracle

>  <origin>  (65) 
adg

>  <m_score__min__energy>  (65) 
-6.7999999999999998

>  <m_primary>  (65) 
energy

$$$$
68:0
     RDKit          3D

 37 38  0  0  0  0  0  0  0  0999 V2000
  141.4500  159.4920  132.6310 N   0  0  0  0  0  0  0  0  0  0  0  0
  142.4190  160.0100  133.5390 C   0  0  0  0  0  0  0  0  0  0  0  0
  142.0590  160.8280  134.4260 O   0  0  0  0  0  0  0  0  0  0  0  0
  143.8230  159.5570  133.4540 C   0  0  0  0  0  0  0  0  0  0  0  0
  144.9090  160.4250  133.3540 C   0  0  0  0  0  0  0  0  0  0  0  0
  146.0110  159.6130  133.2040 C   0  0  0  0  0  0  0  0  0  0  0  0
  147.3550  159.9440  133.0560 C   0  0  0  0  0  0  0  0  0  0  0  0
  148.2820  158.8940  132.9310 C   0  0  0  0  0  0  0  0  0  0  0  0
  147.8550  157.5420  132.9690 C   0  0  0  0  0  0  0  0  0  0  0  0
  148.8110  156.4740  132.8170 N   0  0  0  0  0  0  0  0  0  0  0  0
  148.1660  155.1810  133.0860 C   0  0  0  0  0  0  0  0  0  0  0  0
  149.0760  154.0110  132.6900 C   0  0  0  0  0  0  0  0  0  0  0  0
  150.3180  154.4770  132.2340 O   0  0  0  0  0  0  0  0  0  0  0  0
  146.4780  157.2480  133.1100 C   0  0  0  0  0  0  0  0  0  0  0  0
  145.5790  158.3130  133.2190 C   0  0  0  0  0  0  0  0  0  0  0  0
  144.2400  158.2610  133.3780 N   0  0  0  0  0  0  0  0  0  0  0  0
  143.4490  157.0680  133.4920 C   0  0  0  0  0  0  0  0  0  0  0  0
  142.5580  156.8290  132.6320 O   0  0  0  0  0  0  0  0  0  0  0  0
  143.7160  156.1060  134.5800 C   0  0  0  0  0  0  0  0  0  0  0  0
  144.6490  155.1510  134.4780 C   0  0  0  0  0  0  0  0  0  0  0  0
  144.9140  154.1910  135.5620 C   0  0  0  0  0  0  0  0  0  0  0  0
  143.9740  153.7200  136.2580 O   0  0  0  0  0  0  0  0  0  0  0  0
  146.2200  153.7980  135.8220 O   0  0  0  0  0  0  0  0  0  0  0  0
  141.6970  158.7360  131.9560 H   0  0  0  0  0  0  0  0  0  0  0  0
  144.8898  161.5243  133.3877 H   0  0  0  0  0  0  0  0  0  0  0  0
  147.6817  160.9942  133.0374 H   0  0  0  0  0  0  0  0  0  0  0  0
  149.3500  159.1237  132.8023 H   0  0  0  0  0  0  0  0  0  0  0  0
  149.1950  156.4850  131.8420 H   0  0  0  0  0  0  0  0  0  0  0  0
  149.6090  156.6190  133.4800 H   0  0  0  0  0  0  0  0  0  0  0  0
  147.9386  155.1105  134.1599 H   0  0  0  0  0  0  0  0  0  0  0  0
  147.2444  155.1217  132.4884 H   0  0  0  0  0  0  0  0  0  0  0  0
  149.2331  153.3642  133.5657 H   0  0  0  0  0  0  0  0  0  0  0  0
  148.5920  153.4473  131.8789 H   0  0  0  0  0  0  0  0  0  0  0  0
  150.7870  153.6940  131.8430 H   0  0  0  0  0  0  0  0  0  0  0  0
  146.1236  156.2069  133.1333 H   0  0  0  0  0  0  0  0  0  0  0  0
  143.1278  156.1764  135.5068 H   0  0  0  0  0  0  0  0  0  0  0  0
  145.2381  155.0814  133.5517 H   0  0  0  0  0  0  0  0  0  0  0  0
  1  2  1  0
  2  3  2  0
  2  4  1  0
  4  5  2  0
  5  6  1  0
  6  7  2  0
  7  8  1  0
  8  9  2  0
  9 10  1  0
 10 11  1  0
 11 12  1  0
 12 13  1  0
  9 14  1  0
 14 15  2  0
 15 16  1  0
 16 17  1  0
 17 18  2  0
 17 19  1  0
 19 20  2  3
 20 21  1  0
 21 22  2  0
 21 23  1  0
 16  4  1  0
 15  6  1  0
  1 24  1  0
  5 25  1  0
  7 26  1  0
  8 27  1  0
 10 28  1  0
 10 29  1  0
 11 30  1  0
 11 31  1  0
 12 32  1  0
 12 33  1  0
 13 34  1  0
 14 35  1  0
 19 36  1  0
 20 37  1  0
M  CHG  3   1  -1  10   1  23  -1
M  END
>  <UniqueID>  (66) 
64

>  <SMILES>  (66) 
[NH-]C(=O)c1cc2ccc([NH2+]CCO)cc2n1C(=O)C=CC(=O)[O-]

>  <Energy>  (66) 
73.45335811183882

>  <Genealogy>  (66) 
[NH-]C(=O)c1cc2ccc([NH2+]CCO)cc2n1C(=O)C=CC(=O)[O-] (protonated)
[NH-]C(=O)c1cc2ccc([NH2+]CCO)cc2n1C(=O)C=CC(=O)[O-] (3D coordinates assigned)
[NH-]C(=O)c1cc2ccc([NH2+]CCO)cc2n1C(=O)C=CC(=O)[O-] (optimized conformer: 73.45335811183882 kcal/mol)

>  <smiles>  (66) 
NC(=O)c1cc2ccc(NCCO)cc2n1C(=O)C=CC(=O)O

>  <score_type>  (66) 
oracle

>  <origin>  (66) 
adg

>  <m_score__min__energy>  (66) 
-7.0499999999999998

>  <m_primary>  (66) 
energy

$$$$
69:0
     RDKit          3D

 43 45  0  0  0  0  0  0  0  0999 V2000
  147.3900  155.3850  135.1800 C   0  0  0  0  0  0  0  0  0  0  0  0
  146.0690  155.8940  134.6150 C   0  0  0  0  0  0  0  0  0  0  0  0
  146.3040  156.6400  133.3360 C   0  0  0  0  0  0  0  0  0  0  0  0
  146.4650  156.0020  132.2610 O   0  0  0  0  0  0  0  0  0  0  0  0
  146.2280  158.0730  133.3070 N   0  0  0  0  0  0  0  0  0  0  0  0
  147.2400  158.9610  133.1020 C   0  0  0  0  0  0  0  0  0  0  0  0
  148.6260  158.6000  132.7250 C   0  0  0  0  0  0  0  0  0  0  0  0
  148.8870  157.5070  131.8410 N   0  0  0  0  0  0  0  0  0  0  0  0
  149.5960  159.2470  133.2010 O   0  0  0  0  0  0  0  0  0  0  0  0
  146.7660  160.2680  133.2190 C   0  0  0  0  0  0  0  0  0  0  0  0
  145.4230  160.1470  133.5040 C   0  0  0  0  0  0  0  0  0  0  0  0
  144.4610  161.1250  133.7380 C   0  0  0  0  0  0  0  0  0  0  0  0
  143.1530  160.7040  134.0360 C   0  0  0  0  0  0  0  0  0  0  0  0
  142.8320  159.3230  134.0850 C   0  0  0  0  0  0  0  0  0  0  0  0
  141.4400  158.8830  134.4500 C   0  0  0  0  0  0  0  0  0  0  0  0
  140.8450  158.0110  133.3400 C   0  0  0  0  0  0  0  0  0  0  0  0
  139.8790  158.8060  132.5040 C   0  0  0  0  0  0  0  0  0  0  0  0
  138.7790  158.1830  131.8970 C   0  0  0  0  0  0  0  0  0  0  0  0
  137.8730  158.9400  131.1510 C   0  0  0  0  0  0  0  0  0  0  0  0
  138.0700  160.3170  131.0300 C   0  0  0  0  0  0  0  0  0  0  0  0
  139.1310  160.9100  131.6360 N   0  0  0  0  0  0  0  0  0  0  0  0
  140.0290  160.1950  132.3660 C   0  0  0  0  0  0  0  0  0  0  0  0
  143.8380  158.3600  133.8500 C   0  0  0  0  0  0  0  0  0  0  0  0
  145.1260  158.8100  133.5480 C   0  0  0  0  0  0  0  0  0  0  0  0
  147.3491  155.4008  136.2791 H   0  0  0  0  0  0  0  0  0  0  0  0
  147.5642  154.3554  134.8343 H   0  0  0  0  0  0  0  0  0  0  0  0
  148.2101  156.0315  134.8343 H   0  0  0  0  0  0  0  0  0  0  0  0
  145.4043  155.0395  134.4200 H   0  0  0  0  0  0  0  0  0  0  0  0
  145.6049  156.5729  135.3455 H   0  0  0  0  0  0  0  0  0  0  0  0
  148.1140  156.9800  131.3810 H   0  0  0  0  0  0  0  0  0  0  0  0
  149.8710  157.2470  131.6090 H   0  0  0  0  0  0  0  0  0  0  0  0
  147.3423  161.1983  133.1074 H   0  0  0  0  0  0  0  0  0  0  0  0
  144.7160  162.1940  133.6913 H   0  0  0  0  0  0  0  0  0  0  0  0
  142.3713  161.4524  134.2330 H   0  0  0  0  0  0  0  0  0  0  0  0
  141.4766  158.3042  135.3847 H   0  0  0  0  0  0  0  0  0  0  0  0
  140.8079  159.7737  134.5803 H   0  0  0  0  0  0  0  0  0  0  0  0
  141.6570  157.6383  132.6983 H   0  0  0  0  0  0  0  0  0  0  0  0
  140.3071  157.1688  133.7998 H   0  0  0  0  0  0  0  0  0  0  0  0
  138.6299  157.0989  132.0084 H   0  0  0  0  0  0  0  0  0  0  0  0
  137.0133  158.4566  130.6639 H   0  0  0  0  0  0  0  0  0  0  0  0
  137.3644  160.9228  130.4426 H   0  0  0  0  0  0  0  0  0  0  0  0
  140.8746  160.7063  132.8492 H   0  0  0  0  0  0  0  0  0  0  0  0
  143.6136  157.2844  133.9033 H   0  0  0  0  0  0  0  0  0  0  0  0
  1  2  1  0
  2  3  1  0
  3  4  2  0
  3  5  1  0
  5  6  1  0
  6  7  1  0
  7  8  1  0
  7  9  2  0
  6 10  2  0
 10 11  1  0
 11 12  2  0
 12 13  1  0
 13 14  2  0
 14 15  1  0
 15 16  1  0
 16 17  1  0
 17 18  2  0
 18 19  1  0
 19 20  2  0
 20 21  1  0
 21 22  2  0
 14 23  1  0
 23 24  2  0
 24  5  1  0
 24 11  1  0
 22 17  1  0
  1 25  1  0
  1 26  1  0
  1 27  1  0
  2 28  1  0
  2 29  1  0
  8 30  1  0
  8 31  1  0
 10 32  1  0
 12 33  1  0
 13 34  1  0
 15 35  1  0
 15 36  1  0
 16 37  1  0
 16 38  1  0
 18 39  1  0
 19 40  1  0
 20 41  1  0
 22 42  1  0
 23 43  1  0
M  END
>  <UniqueID>  (67) 
65

>  <SMILES>  (67) 
CCC(=O)n1c(C(N)=O)cc2ccc(CCc3cccnc3)cc21

>  <Energy>  (67) 
78.34973964511894

>  <Genealogy>  (67) 
CCC(=O)n1c(C(N)=O)cc2ccc(CCc3cccnc3)cc21 (3D coordinates assigned)
CCC(=O)n1c(C(N)=O)cc2ccc(CCc3cccnc3)cc21 (optimized conformer: 78.34973964511894 kcal/mol)

>  <smiles>  (67) 
CCC(=O)n1c(C(N)=O)cc2ccc(CCc3cccnc3)cc21

>  <score_type>  (67) 
oracle

>  <origin>  (67) 
adg

>  <m_score__min__energy>  (67) 
-8.1999999999999993

>  <m_primary>  (67) 
energy

$$$$
70:0
     RDKit          3D

 53 55  0  0  0  0  0  0  0  0999 V2000
  138.6920  159.7280  130.5860 C   0  0  0  0  0  0  0  0  0  0  0  0
  139.7910  158.9870  131.1050 O   0  0  0  0  0  0  0  0  0  0  0  0
  140.2910  159.1800  132.3980 C   0  0  0  0  0  0  0  0  0  0  0  0
  140.6180  160.3380  132.7820 O   0  0  0  0  0  0  0  0  0  0  0  0
  140.3640  158.0040  133.3550 C   0  0  0  0  0  0  0  0  0  0  0  0
  140.4020  158.5520  134.7940 C   0  0  0  0  0  0  0  0  0  0  0  0
  139.1080  157.1210  133.1910 C   0  0  0  0  0  0  0  0  0  0  0  0
  141.6440  157.1580  133.1080 C   0  0  0  0  0  0  0  0  0  0  0  0
  142.8240  157.9630  133.1310 O   0  0  0  0  0  0  0  0  0  0  0  0
  143.9610  157.6610  133.8890 C   0  0  0  0  0  0  0  0  0  0  0  0
  143.9150  156.7860  134.7960 O   0  0  0  0  0  0  0  0  0  0  0  0
  145.1940  158.3440  133.6180 N   0  0  0  0  0  0  0  0  0  0  0  0
  145.3940  159.6880  133.5210 C   0  0  0  0  0  0  0  0  0  0  0  0
  144.3900  160.7290  133.8400 C   0  0  0  0  0  0  0  0  0  0  0  0
  143.0510  160.6280  133.3530 N   0  0  0  0  0  0  0  0  0  0  0  0
  144.7190  161.7340  134.5250 O   0  0  0  0  0  0  0  0  0  0  0  0
  146.7150  159.9580  133.1640 C   0  0  0  0  0  0  0  0  0  0  0  0
  147.3180  158.7260  133.0410 C   0  0  0  0  0  0  0  0  0  0  0  0
  148.6220  158.4010  132.6880 C   0  0  0  0  0  0  0  0  0  0  0  0
  148.9630  157.0410  132.6070 C   0  0  0  0  0  0  0  0  0  0  0  0
  148.0010  156.0260  132.8670 C   0  0  0  0  0  0  0  0  0  0  0  0
  148.3590  154.6270  132.7640 N   0  0  0  0  0  0  0  0  0  0  0  0
  147.4680  153.5320  133.1160 C   0  0  0  0  0  0  0  0  0  0  0  0
  148.3050  152.2640  133.0190 C   0  0  0  0  0  0  0  0  0  0  0  0
  149.5300  152.6380  132.1910 C   0  0  0  0  0  0  0  0  0  0  0  0
  149.6520  154.1530  132.2960 C   0  0  0  0  0  0  0  0  0  0  0  0
  146.6830  156.4070  133.2240 C   0  0  0  0  0  0  0  0  0  0  0  0
  146.3800  157.7690  133.3190 C   0  0  0  0  0  0  0  0  0  0  0  0
  138.0954  160.1303  131.4180 H   0  0  0  0  0  0  0  0  0  0  0  0
  139.0678  160.5579  129.9695 H   0  0  0  0  0  0  0  0  0  0  0  0
  138.0636  159.0685  129.9695 H   0  0  0  0  0  0  0  0  0  0  0  0
  140.3440  157.7159  135.5064 H   0  0  0  0  0  0  0  0  0  0  0  0
  141.3405  159.1036  134.9516 H   0  0  0  0  0  0  0  0  0  0  0  0
  139.5486  159.2279  134.9516 H   0  0  0  0  0  0  0  0  0  0  0  0
  138.7196  156.8480  134.1833 H   0  0  0  0  0  0  0  0  0  0  0  0
  138.3383  157.6777  132.6364 H   0  0  0  0  0  0  0  0  0  0  0  0
  139.3713  156.2082  132.6364 H   0  0  0  0  0  0  0  0  0  0  0  0
  141.7208  156.3909  133.8926 H   0  0  0  0  0  0  0  0  0  0  0  0
  141.5631  156.6978  132.1122 H   0  0  0  0  0  0  0  0  0  0  0  0
  142.3710  161.4000  133.5290 H   0  0  0  0  0  0  0  0  0  0  0  0
  142.7140  159.7720  132.8600 H   0  0  0  0  0  0  0  0  0  0  0  0
  147.1768  160.9448  133.0129 H   0  0  0  0  0  0  0  0  0  0  0  0
  149.3646  159.1850  132.4784 H   0  0  0  0  0  0  0  0  0  0  0  0
  149.9909  156.7561  132.3381 H   0  0  0  0  0  0  0  0  0  0  0  0
  147.0882  153.6621  134.1401 H   0  0  0  0  0  0  0  0  0  0  0  0
  146.5952  153.4914  132.4478 H   0  0  0  0  0  0  0  0  0  0  0  0
  148.6082  151.9274  134.0214 H   0  0  0  0  0  0  0  0  0  0  0  0
  147.7404  151.4402  132.5580 H   0  0  0  0  0  0  0  0  0  0  0  0
  150.4297  152.1518  132.5961 H   0  0  0  0  0  0  0  0  0  0  0  0
  149.4289  152.3104  131.1458 H   0  0  0  0  0  0  0  0  0  0  0  0
  150.4410  154.4243  133.0128 H   0  0  0  0  0  0  0  0  0  0  0  0
  149.9210  154.6039  131.3294 H   0  0  0  0  0  0  0  0  0  0  0  0
  145.9137  155.6462  133.4224 H   0  0  0  0  0  0  0  0  0  0  0  0
  1  2  1  0
  2  3  1  0
  3  4  2  0
  3  5  1  0
  5  6  1  0
  5  7  1  0
  5  8  1  0
  8  9  1  0
  9 10  1  0
 10 11  2  0
 10 12  1  0
 12 13  1  0
 13 14  1  0
 14 15  1  0
 14 16  2  0
 13 17  2  0
 17 18  1  0
 18 19  2  0
 19 20  1  0
 20 21  2  0
 21 22  1  0
 22 23  1  0
 23 24  1  0
 24 25  1  0
 25 26  1  0
 21 27  1  0
 27 28  2  0
 28 12  1  0
 28 18  1  0
 26 22  1  0
  1 29  1  0
  1 30  1  0
  1 31  1  0
  6 32  1  0
  6 33  1  0
  6 34  1  0
  7 35  1  0
  7 36  1  0
  7 37  1  0
  8 38  1  0
  8 39  1  0
 15 40  1  0
 15 41  1  0
 17 42  1  0
 19 43  1  0
 20 44  1  0
 23 45  1  0
 23 46  1  0
 24 47  1  0
 24 48  1  0
 25 49  1  0
 25 50  1  0
 26 51  1  0
 26 52  1  0
 27 53  1  0
M  END
>  <UniqueID>  (68) 
66

>  <SMILES>  (68) 
COC(=O)C(C)(C)COC(=O)n1c(C(N)=O)cc2ccc(N3CCCC3)cc21

>  <Energy>  (68) 
87.63191947328792

>  <Genealogy>  (68) 
COC(=O)C(C)(C)COC(=O)n1c(C(N)=O)cc2ccc(N3CCCC3)cc21 (3D coordinates assigned)
COC(=O)C(C)(C)COC(=O)n1c(C(N)=O)cc2ccc(N3CCCC3)cc21 (nonaromatic ring conformer: 87.63191947328792 kcal/mol)

>  <smiles>  (68) 
COC(=O)C(C)(C)COC(=O)n1c(C(N)=O)cc2ccc(N3CCCC3)cc21

>  <score_type>  (68) 
oracle

>  <origin>  (68) 
adg

>  <m_score__min__energy>  (68) 
-8.0700000000000003

>  <m_primary>  (68) 
energy

$$$$
71:0
     RDKit          3D

 33 34  0  0  0  0  0  0  0  0999 V2000
  143.9570  163.6210  133.6700 C   0  0  0  0  0  0  0  0  0  0  0  0
  144.9310  162.6320  134.1520 N   0  0  0  0  0  0  0  0  0  0  0  0
  146.1310  163.1020  134.8530 C   0  0  0  0  0  0  0  0  0  0  0  0
  144.7090  161.2120  133.9360 C   0  0  0  0  0  0  0  0  0  0  0  0
  143.3940  160.6660  133.9900 C   0  0  0  0  0  0  0  0  0  0  0  0
  143.1700  159.2930  133.7950 C   0  0  0  0  0  0  0  0  0  0  0  0
  144.2680  158.4810  133.5390 C   0  0  0  0  0  0  0  0  0  0  0  0
  144.3410  157.1210  133.3450 C   0  0  0  0  0  0  0  0  0  0  0  0
  145.6920  156.8480  133.1470 C   0  0  0  0  0  0  0  0  0  0  0  0
  146.2190  155.4990  132.8520 C   0  0  0  0  0  0  0  0  0  0  0  0
  147.3500  155.3130  131.9990 N   0  0  0  0  0  0  0  0  0  0  0  0
  145.6330  154.4910  133.3260 O   0  0  0  0  0  0  0  0  0  0  0  0
  146.4260  157.9940  133.2310 N   0  0  0  0  0  0  0  0  0  0  0  0
  147.8550  158.1330  133.2030 C   0  0  0  0  0  0  0  0  0  0  0  0
  148.5820  157.1040  133.1950 O   0  0  0  0  0  0  0  0  0  0  0  0
  148.4910  159.4830  133.0800 C   0  0  0  0  0  0  0  0  0  0  0  0
  148.9110  159.8820  131.0270 I   0  0  0  0  0  0  0  0  0  0  0  0
  145.5390  158.9830  133.4650 C   0  0  0  0  0  0  0  0  0  0  0  0
  145.7980  160.3420  133.6730 C   0  0  0  0  0  0  0  0  0  0  0  0
  143.4752  164.1102  134.5294 H   0  0  0  0  0  0  0  0  0  0  0  0
  144.4732  164.3768  133.0599 H   0  0  0  0  0  0  0  0  0  0  0  0
  143.1934  163.1164  133.0599 H   0  0  0  0  0  0  0  0  0  0  0  0
  145.9695  163.0387  135.9392 H   0  0  0  0  0  0  0  0  0  0  0  0
  146.9892  162.4735  134.5727 H   0  0  0  0  0  0  0  0  0  0  0  0
  146.3341  164.1461  134.5727 H   0  0  0  0  0  0  0  0  0  0  0  0
  142.5401  161.3306  134.1877 H   0  0  0  0  0  0  0  0  0  0  0  0
  142.1546  158.8728  133.8436 H   0  0  0  0  0  0  0  0  0  0  0  0
  143.5087  156.4018  133.3461 H   0  0  0  0  0  0  0  0  0  0  0  0
  147.7450  156.1010  131.4420 H   0  0  0  0  0  0  0  0  0  0  0  0
  147.7390  154.3560  131.8500 H   0  0  0  0  0  0  0  0  0  0  0  0
  147.8048  160.2491  133.4701 H   0  0  0  0  0  0  0  0  0  0  0  0
  149.4269  159.5028  133.6576 H   0  0  0  0  0  0  0  0  0  0  0  0
  146.8270  160.7287  133.6333 H   0  0  0  0  0  0  0  0  0  0  0  0
  1  2  1  0
  2  3  1  0
  2  4  1  0
  4  5  2  0
  5  6  1  0
  6  7  2  0
  7  8  1  0
  8  9  2  0
  9 10  1  0
 10 11  1  0
 10 12  2  0
  9 13  1  0
 13 14  1  0
 14 15  2  0
 14 16  1  0
 16 17  1  0
 13 18  1  0
 18 19  2  0
 19  4  1  0
 18  7  1  0
  1 20  1  0
  1 21  1  0
  1 22  1  0
  3 23  1  0
  3 24  1  0
  3 25  1  0
  5 26  1  0
  6 27  1  0
  8 28  1  0
 11 29  1  0
 11 30  1  0
 16 31  1  0
 16 32  1  0
 19 33  1  0
M  END
>  <UniqueID>  (69) 
67

>  <SMILES>  (69) 
CN(C)c1ccc2cc(C(N)=O)n(C(=O)CI)c2c1

>  <Energy>  (69) 
73.1116749573749

>  <Genealogy>  (69) 
CN(C)c1ccc2cc(C(N)=O)n(C(=O)CI)c2c1 (3D coordinates assigned)
CN(C)c1ccc2cc(C(N)=O)n(C(=O)CI)c2c1 (optimized conformer: 73.1116749573749 kcal/mol)

>  <smiles>  (69) 
CN(C)c1ccc2cc(C(N)=O)n(C(=O)CI)c2c1

>  <score_type>  (69) 
oracle

>  <origin>  (69) 
adg

>  <m_score__min__energy>  (69) 
-7.4500000000000002

>  <m_primary>  (69) 
energy

$$$$
72:0
     RDKit          3D

 46 47  0  0  0  0  0  0  0  0999 V2000
  139.4850  149.6430  130.0050 C   0  0  0  0  0  0  0  0  0  0  0  0
  139.9050  150.3640  131.2190 N   0  0  0  0  0  0  0  0  0  0  0  0
  138.8150  150.3370  132.2090 C   0  0  0  0  0  0  0  0  0  0  0  0
  141.1510  149.7930  131.7810 C   0  0  0  0  0  0  0  0  0  0  0  0
  141.8760  150.8390  132.6340 C   0  0  0  0  0  0  0  0  0  0  0  0
  141.1870  152.1300  132.6020 N   0  0  0  0  0  0  0  0  0  0  0  0
  141.3630  153.1780  133.5750 C   0  0  0  0  0  0  0  0  0  0  0  0
  142.1640  152.9250  134.7180 C   0  0  0  0  0  0  0  0  0  0  0  0
  142.3540  153.9100  135.7010 C   0  0  0  0  0  0  0  0  0  0  0  0
  141.7420  155.1450  135.5110 C   0  0  0  0  0  0  0  0  0  0  0  0
  141.7330  156.2640  136.3140 C   0  0  0  0  0  0  0  0  0  0  0  0
  140.9440  157.1950  135.6420 C   0  0  0  0  0  0  0  0  0  0  0  0
  140.6930  158.5660  136.1300 C   0  0  0  0  0  0  0  0  0  0  0  0
  140.6090  159.6470  135.2040 N   0  0  0  0  0  0  0  0  0  0  0  0
  140.5340  158.7940  137.3590 O   0  0  0  0  0  0  0  0  0  0  0  0
  140.4890  156.6740  134.4690 N   0  0  0  0  0  0  0  0  0  0  0  0
  139.6010  157.2890  133.5220 C   0  0  0  0  0  0  0  0  0  0  0  0
  138.3590  157.1040  133.6200 O   0  0  0  0  0  0  0  0  0  0  0  0
  140.1220  158.1360  132.4390 C   0  0  0  0  0  0  0  0  0  0  0  0
  141.2070  158.7610  132.5940 O   0  0  0  0  0  0  0  0  0  0  0  0
  139.4030  158.2480  131.2460 O   0  0  0  0  0  0  0  0  0  0  0  0
  138.0300  158.6250  131.2100 C   0  0  0  0  0  0  0  0  0  0  0  0
  137.9120  160.1150  130.9220 C   0  0  0  0  0  0  0  0  0  0  0  0
  138.3560  160.3760  129.6380 F   0  0  0  0  0  0  0  0  0  0  0  0
  136.5920  160.5140  131.0340 F   0  0  0  0  0  0  0  0  0  0  0  0
  138.6830  160.8310  131.8200 F   0  0  0  0  0  0  0  0  0  0  0  0
  140.9810  155.4170  134.4060 C   0  0  0  0  0  0  0  0  0  0  0  0
  140.7590  154.4500  133.4200 C   0  0  0  0  0  0  0  0  0  0  0  0
  138.9503  148.7250  130.2903 H   0  0  0  0  0  0  0  0  0  0  0  0
  138.8195  150.2849  129.4091 H   0  0  0  0  0  0  0  0  0  0  0  0
  140.3716  149.3807  129.4091 H   0  0  0  0  0  0  0  0  0  0  0  0
  139.2406  150.3475  133.2233 H   0  0  0  0  0  0  0  0  0  0  0  0
  138.1729  151.2195  132.0716 H   0  0  0  0  0  0  0  0  0  0  0  0
  138.2174  149.4238  132.0716 H   0  0  0  0  0  0  0  0  0  0  0  0
  140.9019  148.9234  132.4069 H   0  0  0  0  0  0  0  0  0  0  0  0
  141.8090  149.4857  130.9548 H   0  0  0  0  0  0  0  0  0  0  0  0
  141.9203  150.4834  133.6740 H   0  0  0  0  0  0  0  0  0  0  0  0
  142.8871  150.9777  132.2235 H   0  0  0  0  0  0  0  0  0  0  0  0
  140.5100  152.2870  131.8200 H   0  0  0  0  0  0  0  0  0  0  0  0
  142.6437  151.9422  134.8363 H   0  0  0  0  0  0  0  0  0  0  0  0
  142.9670  153.7114  136.5925 H   0  0  0  0  0  0  0  0  0  0  0  0
  142.2410  156.3948  137.2808 H   0  0  0  0  0  0  0  0  0  0  0  0
  140.1190  159.5330  134.2890 H   0  0  0  0  0  0  0  0  0  0  0  0
  137.5163  158.0584  130.4194 H   0  0  0  0  0  0  0  0  0  0  0  0
  137.5673  158.4054  132.1835 H   0  0  0  0  0  0  0  0  0  0  0  0
  140.1304  154.6720  132.5450 H   0  0  0  0  0  0  0  0  0  0  0  0
  1  2  1  0
  2  3  1  0
  2  4  1  0
  4  5  1  0
  5  6  1  0
  6  7  1  0
  7  8  2  0
  8  9  1  0
  9 10  2  0
 10 11  1  0
 11 12  2  0
 12 13  1  0
 13 14  1  0
 13 15  2  0
 12 16  1  0
 16 17  1  0
 17 18  2  0
 17 19  1  0
 19 20  2  0
 19 21  1  0
 21 22  1  0
 22 23  1  0
 23 24  1  0
 23 25  1  0
 23 26  1  0
 16 27  1  0
 27 28  2  0
 28  7  1  0
 27 10  1  0
  1 29  1  0
  1 30  1  0
  1 31  1  0
  3 32  1  0
  3 33  1  0
  3 34  1  0
  4 35  1  0
  4 36  1  0
  5 37  1  0
  5 38  1  0
  6 39  1  0
  8 40  1  0
  9 41  1  0
 11 42  1  0
 14 43  1  0
 22 44  1  0
 22 45  1  0
 28 46  1  0
M  CHG  1  14  -1
M  END
>  <UniqueID>  (70) 
68

>  <SMILES>  (70) 
CN(C)CCNc1ccc2cc(C([NH-])=O)n(C(=O)C(=O)OCC(F)(F)F)c2c1

>  <Energy>  (70) 
78.67984062028897

>  <Genealogy>  (70) 
CN(C)CCNc1ccc2cc(C([NH-])=O)n(C(=O)C(=O)OCC(F)(F)F)c2c1 (protonated)
CN(C)CCNc1ccc2cc(C([NH-])=O)n(C(=O)C(=O)OCC(F)(F)F)c2c1 (3D coordinates assigned)
CN(C)CCNc1ccc2cc(C([NH-])=O)n(C(=O)C(=O)OCC(F)(F)F)c2c1 (optimized conformer: 78.67984062028897 kcal/mol)

>  <smiles>  (70) 
CN(C)CCNc1ccc2cc(C(N)=O)n(C(=O)C(=O)OCC(F)(F)F)c2c1

>  <score_type>  (70) 
oracle

>  <origin>  (70) 
adg

>  <m_score__min__energy>  (70) 
-6.4000000000000004

>  <m_primary>  (70) 
energy

$$$$
73:0
     RDKit          3D

 44 46  0  0  0  0  0  0  0  0999 V2000
  150.7260  160.4700  131.4750 H   0  0  0  0  0  0  0  0  0  0  0  0
  150.1090  159.6920  131.5100 O   0  0  0  0  0  0  0  0  0  0  0  0
  149.0440  160.0340  132.3620 C   0  0  0  0  0  0  0  0  0  0  0  0
  149.2580  160.9963  132.8501 H   0  0  0  0  0  0  0  0  0  0  0  0
  147.7490  160.2320  131.5430 C   0  0  0  0  0  0  0  0  0  0  0  0
  147.7365  159.5067  130.7161 H   0  0  0  0  0  0  0  0  0  0  0  0
  147.7391  161.2646  131.1641 H   0  0  0  0  0  0  0  0  0  0  0  0
  146.4960  160.0280  132.4000 C   0  0  0  0  0  0  0  0  0  0  0  0
  145.6041  160.1294  131.7642 H   0  0  0  0  0  0  0  0  0  0  0  0
  146.4872  160.7862  133.1969 H   0  0  0  0  0  0  0  0  0  0  0  0
  146.4970  158.6930  133.0200 N   0  0  0  0  0  0  0  0  0  0  0  0
  145.2480  158.0600  133.3750 C   0  0  0  0  0  0  0  0  0  0  0  0
  145.2240  156.6980  133.7830 C   0  0  0  0  0  0  0  0  0  0  0  0
  146.1646  156.1301  133.8352 H   0  0  0  0  0  0  0  0  0  0  0  0
  144.0150  156.0690  134.1200 C   0  0  0  0  0  0  0  0  0  0  0  0
  143.9925  155.0132  134.4279 H   0  0  0  0  0  0  0  0  0  0  0  0
  142.8470  156.8200  134.0530 C   0  0  0  0  0  0  0  0  0  0  0  0
  141.5420  156.4540  134.2980 C   0  0  0  0  0  0  0  0  0  0  0  0
  141.1736  155.4657  134.6105 H   0  0  0  0  0  0  0  0  0  0  0  0
  140.7890  157.6010  134.0660 C   0  0  0  0  0  0  0  0  0  0  0  0
  139.3280  157.6710  134.2770 C   0  0  0  0  0  0  0  0  0  0  0  0
  138.8820  157.9380  135.4240 O   0  0  0  0  0  0  0  0  0  0  0  0
  138.4130  157.4970  133.1940 N   0  0  0  0  0  0  0  0  0  0  0  0
  137.3840  157.5000  133.3730 H   0  0  0  0  0  0  0  0  0  0  0  0
  138.7460  157.4510  132.2070 H   0  0  0  0  0  0  0  0  0  0  0  0
  141.5910  158.6320  133.6770 N   0  0  0  0  0  0  0  0  0  0  0  0
  141.1970  159.9440  133.2410 C   0  0  0  0  0  0  0  0  0  0  0  0
  141.9850  160.9150  133.4030 O   0  0  0  0  0  0  0  0  0  0  0  0
  139.8910  160.1450  132.5790 C   0  0  0  0  0  0  0  0  0  0  0  0
  139.1709  160.8460  133.0262 H   0  0  0  0  0  0  0  0  0  0  0  0
  139.5550  159.5030  131.4540 C   0  0  0  0  0  0  0  0  0  0  0  0
  140.2725  158.8002  131.0054 H   0  0  0  0  0  0  0  0  0  0  0  0
  138.2540  159.7100  130.8000 C   0  0  0  0  0  0  0  0  0  0  0  0
  138.1480  160.5650  129.8830 O   0  0  0  0  0  0  0  0  0  0  0  0
  137.1350  158.9770  131.1820 O   0  0  0  0  0  0  0  0  0  0  0  0
  142.8490  158.1380  133.6790 C   0  0  0  0  0  0  0  0  0  0  0  0
  144.0350  158.7870  133.3200 C   0  0  0  0  0  0  0  0  0  0  0  0
  144.0251  159.8399  133.0018 H   0  0  0  0  0  0  0  0  0  0  0  0
  147.7730  157.9950  133.2500 C   0  0  0  0  0  0  0  0  0  0  0  0
  148.0210  157.3934  132.3631 H   0  0  0  0  0  0  0  0  0  0  0  0
  147.6686  157.3466  134.1325 H   0  0  0  0  0  0  0  0  0  0  0  0
  148.9000  159.0020  133.5070 C   0  0  0  0  0  0  0  0  0  0  0  0
  149.8477  158.4528  133.6085 H   0  0  0  0  0  0  0  0  0  0  0  0
  148.6526  159.5539  134.4258 H   0  0  0  0  0  0  0  0  0  0  0  0
  1  2  1  0
  2  3  1  0
  3  4  1  0
  3  5  1  0
  5  6  1  0
  5  7  1  0
  5  8  1  0
  8  9  1  0
  8 10  1  0
  8 11  1  0
 11 12  1  0
 12 13  2  0
 13 14  1  0
 13 15  1  0
 15 16  1  0
 15 17  2  0
 17 18  1  0
 18 19  1  0
 18 20  2  0
 20 21  1  0
 21 22  2  0
 21 23  1  0
 23 24  1  0
 23 25  1  0
 20 26  1  0
 26 27  1  0
 27 28  2  0
 27 29  1  0
 29 30  1  0
 29 31  2  0
 31 32  1  0
 31 33  1  0
 33 34  2  0
 33 35  1  0
 26 36  1  0
 36 37  2  0
 37 38  1  0
 11 39  1  0
 39 40  1  0
 39 41  1  0
 39 42  1  0
 42 43  1  0
 42 44  1  0
 42  3  1  0
 37 12  1  0
 36 17  1  0
M  CHG  1  35  -1
M  END
>  <UniqueID>  (71) 
69

>  <SMILES>  (71) 
NC(=O)c1cc2ccc(N3CCC(O)CC3)cc2n1C(=O)/C=C/C(=O)[O-]

>  <Energy>  (71) 
88.92856140545143

>  <Genealogy>  (71) 
NC(=O)c1cc2ccc(N3CCC(O)CC3)cc2n1C(=O)/C=C/C(=O)[O-] (protonated)
NC(=O)c1cc2ccc(N3CCC(O)CC3)cc2n1C(=O)/C=C/C(=O)[O-] (cis-trans isomerization)
NC(=O)c1cc2ccc(N3CCC(O)CC3)cc2n1C(=O)/C=C/C(=O)[O-] (3D coordinates assigned)
NC(=O)c1cc2ccc(N3CCC(O)CC3)cc2n1C(=O)/C=C/C(=O)[O-] (nonaromatic ring conformer: 88.92856140545143 kcal/mol)

>  <smiles>  (71) 
NC(=O)c1cc2ccc(N3CCC(O)CC3)cc2n1C(=O)/C=C/C(=O)O

>  <score_type>  (71) 
oracle

>  <origin>  (71) 
adg

>  <m_score__min__energy>  (71) 
-8.7899999999999991

>  <m_primary>  (71) 
energy

$$$$
74:0
     RDKit          3D

 39 40  0  0  0  0  0  0  0  0999 V2000
  142.9300  160.0920  132.6370 H   0  0  0  0  0  0  0  0  0  0  0  0
  143.2230  160.7390  133.4010 N   0  0  0  0  0  0  0  0  0  0  0  0
  144.5850  160.8130  133.8160 C   0  0  0  0  0  0  0  0  0  0  0  0
  144.9860  161.8330  134.4340 O   0  0  0  0  0  0  0  0  0  0  0  0
  145.5180  159.7180  133.4780 C   0  0  0  0  0  0  0  0  0  0  0  0
  146.8780  159.9130  133.2430 C   0  0  0  0  0  0  0  0  0  0  0  0
  147.4198  160.8699  133.2134 H   0  0  0  0  0  0  0  0  0  0  0  0
  147.3980  158.6530  133.0560 C   0  0  0  0  0  0  0  0  0  0  0  0
  148.7020  158.2570  132.7790 C   0  0  0  0  0  0  0  0  0  0  0  0
  149.5131  158.9957  132.6985 H   0  0  0  0  0  0  0  0  0  0  0  0
  148.9530  156.8850  132.6050 C   0  0  0  0  0  0  0  0  0  0  0  0
  149.9765  156.5419  132.3937 H   0  0  0  0  0  0  0  0  0  0  0  0
  147.8990  155.9360  132.6990 C   0  0  0  0  0  0  0  0  0  0  0  0
  148.1270  154.5250  132.5190 N   0  0  0  0  0  0  0  0  0  0  0  0
  147.3030  153.9090  132.3330 H   0  0  0  0  0  0  0  0  0  0  0  0
  149.4370  153.8740  132.5900 C   0  0  0  0  0  0  0  0  0  0  0  0
  150.0457  154.1946  131.7317 H   0  0  0  0  0  0  0  0  0  0  0  0
  149.9227  154.1624  133.5338 H   0  0  0  0  0  0  0  0  0  0  0  0
  149.2910  152.3530  132.5600 C   0  0  0  0  0  0  0  0  0  0  0  0
  148.2270  152.0926  132.6605 H   0  0  0  0  0  0  0  0  0  0  0  0
  149.7820  151.8650  131.3630 F   0  0  0  0  0  0  0  0  0  0  0  0
  150.0030  151.7920  133.6030 F   0  0  0  0  0  0  0  0  0  0  0  0
  146.5900  156.3830  132.9890 C   0  0  0  0  0  0  0  0  0  0  0  0
  145.7579  155.6679  133.0678 H   0  0  0  0  0  0  0  0  0  0  0  0
  146.3730  157.7530  133.1740 C   0  0  0  0  0  0  0  0  0  0  0  0
  145.2090  158.3920  133.4310 N   0  0  0  0  0  0  0  0  0  0  0  0
  143.9100  157.7900  133.5400 C   0  0  0  0  0  0  0  0  0  0  0  0
  143.0710  157.9310  132.6090 O   0  0  0  0  0  0  0  0  0  0  0  0
  143.5730  157.0690  134.6890 O   0  0  0  0  0  0  0  0  0  0  0  0
  143.0900  155.7300  134.6440 C   0  0  0  0  0  0  0  0  0  0  0  0
  142.5135  155.5181  135.5565 H   0  0  0  0  0  0  0  0  0  0  0  0
  142.4442  155.6044  133.7624 H   0  0  0  0  0  0  0  0  0  0  0  0
  144.2440  154.7820  134.5530 C   0  0  0  0  0  0  0  0  0  0  0  0
  144.3574  154.1531  133.6577 H   0  0  0  0  0  0  0  0  0  0  0  0
  145.1390  154.6860  135.5400 C   0  0  0  0  0  0  0  0  0  0  0  0
  145.0189  155.3195  136.4312 H   0  0  0  0  0  0  0  0  0  0  0  0
  146.2790  153.7610  135.4730 C   0  0  0  0  0  0  0  0  0  0  0  0
  146.7010  153.3730  134.3530 O   0  0  0  0  0  0  0  0  0  0  0  0
  146.9020  153.3070  136.6310 O   0  0  0  0  0  0  0  0  0  0  0  0
  1  2  1  0
  2  3  1  0
  3  4  2  0
  3  5  1  0
  5  6  2  0
  6  7  1  0
  6  8  1  0
  8  9  2  0
  9 10  1  0
  9 11  1  0
 11 12  1  0
 11 13  2  0
 13 14  1  0
 14 15  1  0
 14 16  1  0
 16 17  1  0
 16 18  1  0
 16 19  1  0
 19 20  1  0
 19 21  1  0
 19 22  1  0
 13 23  1  0
 23 24  1  0
 23 25  2  0
 25 26  1  0
 26 27  1  0
 27 28  2  0
 27 29  1  0
 29 30  1  0
 30 31  1  0
 30 32  1  0
 30 33  1  0
 33 34  1  0
 33 35  2  0
 35 36  1  0
 35 37  1  0
 37 38  2  0
 37 39  1  0
 26  5  1  0
 25  8  1  0
M  CHG  2   2  -1  39  -1
M  END
>  <UniqueID>  (72) 
70

>  <SMILES>  (72) 
[NH-]C(=O)c1cc2ccc(NCC(F)F)cc2n1C(=O)OC/C=C/C(=O)[O-]

>  <Energy>  (72) 
69.4878112873883

>  <Genealogy>  (72) 
[NH-]C(=O)c1cc2ccc(NCC(F)F)cc2n1C(=O)OC/C=C/C(=O)[O-] (protonated)
[NH-]C(=O)c1cc2ccc(NCC(F)F)cc2n1C(=O)OC/C=C/C(=O)[O-] (cis-trans isomerization)
[NH-]C(=O)c1cc2ccc(NCC(F)F)cc2n1C(=O)OC/C=C/C(=O)[O-] (3D coordinates assigned)
[NH-]C(=O)c1cc2ccc(NCC(F)F)cc2n1C(=O)OC/C=C/C(=O)[O-] (optimized conformer: 69.4878112873883 kcal/mol)

>  <smiles>  (72) 
NC(=O)c1cc2ccc(NCC(F)F)cc2n1C(=O)OC/C=C/C(=O)O

>  <score_type>  (72) 
oracle

>  <origin>  (72) 
adg

>  <m_score__min__energy>  (72) 
-7.0199999999999996

>  <m_primary>  (72) 
energy

$$$$
75:0
     RDKit          3D

 39 40  0  0  0  0  0  0  0  0999 V2000
  149.2280  156.5590  132.2360 N   0  0  0  0  0  0  0  0  0  0  0  0
  148.9290  157.9530  132.3370 C   0  0  0  0  0  0  0  0  0  0  0  0
  149.8120  158.7920  132.0160 O   0  0  0  0  0  0  0  0  0  0  0  0
  147.6120  158.4140  132.8310 C   0  0  0  0  0  0  0  0  0  0  0  0
  147.2710  159.7510  133.0290 C   0  0  0  0  0  0  0  0  0  0  0  0
  145.9430  159.7400  133.3890 C   0  0  0  0  0  0  0  0  0  0  0  0
  145.0860  160.7940  133.6930 C   0  0  0  0  0  0  0  0  0  0  0  0
  143.7580  160.4860  134.0340 C   0  0  0  0  0  0  0  0  0  0  0  0
  143.3150  159.1390  134.0880 C   0  0  0  0  0  0  0  0  0  0  0  0
  141.8760  158.8250  134.4130 C   0  0  0  0  0  0  0  0  0  0  0  0
  141.4710  157.7300  133.6720 F   0  0  0  0  0  0  0  0  0  0  0  0
  141.7310  158.5370  135.7600 F   0  0  0  0  0  0  0  0  0  0  0  0
  141.0620  159.9020  134.1100 F   0  0  0  0  0  0  0  0  0  0  0  0
  144.2110  158.0980  133.7480 C   0  0  0  0  0  0  0  0  0  0  0  0
  145.5230  158.4370  133.4030 C   0  0  0  0  0  0  0  0  0  0  0  0
  146.5360  157.6110  133.0660 N   0  0  0  0  0  0  0  0  0  0  0  0
  146.4730  156.1770  133.0070 C   0  0  0  0  0  0  0  0  0  0  0  0
  146.1200  155.6120  131.9380 O   0  0  0  0  0  0  0  0  0  0  0  0
  146.7730  155.3580  134.1900 C   0  0  0  0  0  0  0  0  0  0  0  0
  145.8590  155.0770  135.0130 O   0  0  0  0  0  0  0  0  0  0  0  0
  148.0730  154.8820  134.3850 O   0  0  0  0  0  0  0  0  0  0  0  0
  148.3970  153.4950  134.3600 C   0  0  0  0  0  0  0  0  0  0  0  0
  148.5150  152.9940  132.9120 C   0  0  2  0  0  0  0  0  0  0  0  0
  148.5510  154.0770  132.0170 O   0  0  0  0  0  0  0  0  0  0  0  0
  147.3930  152.0110  132.5290 C   0  0  0  0  0  0  0  0  0  0  0  0
  146.2110  152.7030  132.2230 O   0  0  0  0  0  0  0  0  0  0  0  0
  148.5060  155.8320  132.4310 H   0  0  0  0  0  0  0  0  0  0  0  0
  150.1740  156.2480  131.9200 H   0  0  0  0  0  0  0  0  0  0  0  0
  147.9249  160.6288  132.9205 H   0  0  0  0  0  0  0  0  0  0  0  0
  145.4375  161.8360  133.6671 H   0  0  0  0  0  0  0  0  0  0  0  0
  143.0531  161.2992  134.2619 H   0  0  0  0  0  0  0  0  0  0  0  0
  143.8835  157.0479  133.7549 H   0  0  0  0  0  0  0  0  0  0  0  0
  149.3556  153.3382  134.8762 H   0  0  0  0  0  0  0  0  0  0  0  0
  147.5969  152.9344  134.8655 H   0  0  0  0  0  0  0  0  0  0  0  0
  149.4614  152.4377  132.8431 H   0  0  0  0  0  0  0  0  0  0  0  0
  147.6130  154.3370  131.8200 H   0  0  0  0  0  0  0  0  0  0  0  0
  147.7078  151.4279  131.6510 H   0  0  0  0  0  0  0  0  0  0  0  0
  147.2014  151.3430  133.3817 H   0  0  0  0  0  0  0  0  0  0  0  0
  146.4740  153.5010  131.6940 H   0  0  0  0  0  0  0  0  0  0  0  0
  1  2  1  0
  2  3  2  0
  2  4  1  0
  4  5  2  0
  5  6  1  0
  6  7  2  0
  7  8  1  0
  8  9  2  0
  9 10  1  0
 10 11  1  0
 10 12  1  0
 10 13  1  0
  9 14  1  0
 14 15  2  0
 15 16  1  0
 16 17  1  0
 17 18  2  0
 17 19  1  0
 19 20  2  0
 19 21  1  0
 21 22  1  0
 22 23  1  0
 23 24  1  0
 23 25  1  0
 25 26  1  0
 16  4  1  0
 15  6  1  0
  1 27  1  0
  1 28  1  0
  5 29  1  0
  7 30  1  0
  8 31  1  0
 14 32  1  0
 22 33  1  0
 22 34  1  0
 23 35  1  1
 24 36  1  0
 25 37  1  0
 25 38  1  0
 26 39  1  0
M  END
>  <UniqueID>  (73) 
71

>  <SMILES>  (73) 
NC(=O)c1cc2ccc(C(F)(F)F)cc2n1C(=O)C(=O)OC[C@H](O)CO

>  <Energy>  (73) 
74.24472210948566

>  <Genealogy>  (73) 
NC(=O)c1cc2ccc(C(F)(F)F)cc2n1C(=O)C(=O)OC[C@H](O)CO (chirality)
NC(=O)c1cc2ccc(C(F)(F)F)cc2n1C(=O)C(=O)OC[C@H](O)CO (3D coordinates assigned)
NC(=O)c1cc2ccc(C(F)(F)F)cc2n1C(=O)C(=O)OC[C@H](O)CO (optimized conformer: 74.24472210948566 kcal/mol)

>  <smiles>  (73) 
NC(=O)c1cc2ccc(C(F)(F)F)cc2n1C(=O)C(=O)OCC(O)CO

>  <score_type>  (73) 
oracle

>  <origin>  (73) 
adg

>  <m_score__min__energy>  (73) 
-5.7000000000000002

>  <m_primary>  (73) 
energy

$$$$
76:0
     RDKit          3D

 59 61  0  0  0  0  0  0  0  0999 V2000
  142.3810  157.1970  140.9070 C   0  0  0  0  0  0  0  0  0  0  0  0
  142.6860  157.6090  139.5760 O   0  0  0  0  0  0  0  0  0  0  0  0
  141.7310  157.7690  138.5560 C   0  0  0  0  0  0  0  0  0  0  0  0
  141.5810  158.9850  137.8560 C   0  0  0  0  0  0  0  0  0  0  0  0
  140.6250  159.1040  136.8450 C   0  0  0  0  0  0  0  0  0  0  0  0
  139.7970  158.0270  136.5190 C   0  0  0  0  0  0  0  0  0  0  0  0
  138.8740  158.1860  135.4760 O   0  0  0  0  0  0  0  0  0  0  0  0
  139.1230  157.8950  134.1270 C   0  0  0  0  0  0  0  0  0  0  0  0
  138.9070  156.7420  133.6600 O   0  0  0  0  0  0  0  0  0  0  0  0
  139.6350  158.9760  133.2290 C   0  0  0  0  0  0  0  0  0  0  0  0
  141.1330  159.0790  133.3390 C   0  0  0  0  0  0  0  0  0  0  0  0
  141.7320  160.3110  133.7060 C   0  0  0  0  0  0  0  0  0  0  0  0
  143.1250  160.4130  133.8560 C   0  0  0  0  0  0  0  0  0  0  0  0
  143.8930  159.2760  133.6120 C   0  0  0  0  0  0  0  0  0  0  0  0
  145.2530  159.0860  133.7140 C   0  0  0  0  0  0  0  0  0  0  0  0
  145.4680  157.7590  133.3600 C   0  0  0  0  0  0  0  0  0  0  0  0
  146.8090  157.1490  133.2740 C   0  0  0  0  0  0  0  0  0  0  0  0
  147.1950  156.3640  132.1460 N   0  0  0  0  0  0  0  0  0  0  0  0
  147.6480  157.3650  134.1900 O   0  0  0  0  0  0  0  0  0  0  0  0
  144.2890  157.1440  133.0660 N   0  0  0  0  0  0  0  0  0  0  0  0
  144.0810  155.7590  132.7460 C   0  0  0  0  0  0  0  0  0  0  0  0
  144.7720  155.2180  131.8400 O   0  0  0  0  0  0  0  0  0  0  0  0
  143.1130  155.0280  133.4520 O   0  0  0  0  0  0  0  0  0  0  0  0
  143.1700  154.6550  134.8380 C   0  0  0  0  0  0  0  0  0  0  0  0
  142.1500  153.5410  135.1420 C   0  0  0  0  0  0  0  0  0  0  0  0
  142.8020  155.9030  135.6540 C   0  0  0  0  0  0  0  0  0  0  0  0
  144.5950  154.2110  135.2250 C   0  0  0  0  0  0  0  0  0  0  0  0
  143.3330  158.0850  133.2240 C   0  0  0  0  0  0  0  0  0  0  0  0
  141.9460  157.9470  133.0990 C   0  0  0  0  0  0  0  0  0  0  0  0
  139.9500  156.8080  137.2080 C   0  0  0  0  0  0  0  0  0  0  0  0
  140.9120  156.6770  138.2310 C   0  0  0  0  0  0  0  0  0  0  0  0
  141.0870  155.4760  138.9420 O   0  0  0  0  0  0  0  0  0  0  0  0
  140.0260  154.6260  139.3660 C   0  0  0  0  0  0  0  0  0  0  0  0
  142.8784  157.8689  141.6219 H   0  0  0  0  0  0  0  0  0  0  0  0
  141.2928  157.2366  141.0628 H   0  0  0  0  0  0  0  0  0  0  0  0
  142.7365  156.1678  141.0628 H   0  0  0  0  0  0  0  0  0  0  0  0
  142.2205  159.8438  138.1080 H   0  0  0  0  0  0  0  0  0  0  0  0
  140.5230  160.0543  136.3004 H   0  0  0  0  0  0  0  0  0  0  0  0
  139.3624  158.7436  132.1890 H   0  0  0  0  0  0  0  0  0  0  0  0
  139.1868  159.9343  133.5302 H   0  0  0  0  0  0  0  0  0  0  0  0
  141.0997  161.1952  133.8748 H   0  0  0  0  0  0  0  0  0  0  0  0
  143.5950  161.3610  134.1567 H   0  0  0  0  0  0  0  0  0  0  0  0
  146.0091  159.8272  134.0124 H   0  0  0  0  0  0  0  0  0  0  0  0
  148.1370  155.9140  132.1230 H   0  0  0  0  0  0  0  0  0  0  0  0
  146.5850  156.2900  131.3030 H   0  0  0  0  0  0  0  0  0  0  0  0
  142.0454  153.4268  136.2310 H   0  0  0  0  0  0  0  0  0  0  0  0
  141.1757  153.8069  134.7060 H   0  0  0  0  0  0  0  0  0  0  0  0
  142.5006  152.5939  134.7060 H   0  0  0  0  0  0  0  0  0  0  0  0
  142.8700  155.6724  136.7274 H   0  0  0  0  0  0  0  0  0  0  0  0
  143.4977  156.7192  135.4095 H   0  0  0  0  0  0  0  0  0  0  0  0
  141.7747  156.2112  135.4095 H   0  0  0  0  0  0  0  0  0  0  0  0
  144.6853  154.1828  136.3209 H   0  0  0  0  0  0  0  0  0  0  0  0
  144.7909  153.2092  134.8151 H   0  0  0  0  0  0  0  0  0  0  0  0
  145.3253  154.9242  134.8151 H   0  0  0  0  0  0  0  0  0  0  0  0
  141.4989  156.9813  132.8207 H   0  0  0  0  0  0  0  0  0  0  0  0
  139.3133  155.9502  136.9457 H   0  0  0  0  0  0  0  0  0  0  0  0
  139.9938  154.6002  140.4652 H   0  0  0  0  0  0  0  0  0  0  0  0
  139.0708  155.0116  138.9801 H   0  0  0  0  0  0  0  0  0  0  0  0
  140.1939  153.6097  138.9801 H   0  0  0  0  0  0  0  0  0  0  0  0
  1  2  1  0
  2  3  1  0
  3  4  2  0
  4  5  1  0
  5  6  2  0
  6  7  1  0
  7  8  1  0
  8  9  2  0
  8 10  1  0
 10 11  1  0
 11 12  2  0
 12 13  1  0
 13 14  2  0
 14 15  1  0
 15 16  2  0
 16 17  1  0
 17 18  1  0
 17 19  2  0
 16 20  1  0
 20 21  1  0
 21 22  2  0
 21 23  1  0
 23 24  1  0
 24 25  1  0
 24 26  1  0
 24 27  1  0
 20 28  1  0
 28 29  2  0
  6 30  1  0
 30 31  2  0
 31 32  1  0
 32 33  1  0
 31  3  1  0
 29 11  1  0
 28 14  1  0
  1 34  1  0
  1 35  1  0
  1 36  1  0
  4 37  1  0
  5 38  1  0
 10 39  1  0
 10 40  1  0
 12 41  1  0
 13 42  1  0
 15 43  1  0
 18 44  1  0
 18 45  1  0
 25 46  1  0
 25 47  1  0
 25 48  1  0
 26 49  1  0
 26 50  1  0
 26 51  1  0
 27 52  1  0
 27 53  1  0
 27 54  1  0
 29 55  1  0
 30 56  1  0
 33 57  1  0
 33 58  1  0
 33 59  1  0
M  END
>  <UniqueID>  (74) 
72

>  <SMILES>  (74) 
COc1ccc(OC(=O)Cc2ccc3cc(C(N)=O)n(C(=O)OC(C)(C)C)c3c2)cc1OC

>  <Energy>  (74) 
97.01856958846494

>  <Genealogy>  (74) 
COc1ccc(OC(=O)Cc2ccc3cc(C(N)=O)n(C(=O)OC(C)(C)C)c3c2)cc1OC (3D coordinates assigned)
COc1ccc(OC(=O)Cc2ccc3cc(C(N)=O)n(C(=O)OC(C)(C)C)c3c2)cc1OC (optimized conformer: 97.01856958846494 kcal/mol)

>  <smiles>  (74) 
COc1ccc(OC(=O)Cc2ccc3cc(C(N)=O)n(C(=O)OC(C)(C)C)c3c2)cc1OC

>  <score_type>  (74) 
oracle

>  <origin>  (74) 
adg

>  <m_score__min__energy>  (74) 
-8.0600000000000005

>  <m_primary>  (74) 
energy

$$$$
77:0
     RDKit          3D

 42 44  0  0  0  0  0  0  0  0999 V2000
  138.6930  148.8720  131.1400 C   0  0  0  0  0  0  0  0  0  0  0  0
  139.5090  149.6140  131.6280 C   0  0  0  0  0  0  0  0  0  0  0  0
  140.4840  150.5010  132.2060 C   0  0  0  0  0  0  0  0  0  0  0  0
  141.7400  149.9970  132.6140 C   0  0  0  0  0  0  0  0  0  0  0  0
  142.6980  150.8530  133.1840 C   0  0  0  0  0  0  0  0  0  0  0  0
  142.3700  152.1990  133.3250 C   0  0  0  0  0  0  0  0  0  0  0  0
  143.0900  153.2330  133.8760 C   0  0  0  0  0  0  0  0  0  0  0  0
  142.2640  154.3510  133.7780 C   0  0  0  0  0  0  0  0  0  0  0  0
  142.6660  155.7030  134.2180 C   0  0  0  0  0  0  0  0  0  0  0  0
  142.4780  156.1220  135.5690 N   0  0  0  0  0  0  0  0  0  0  0  0
  143.1540  156.5120  133.3830 O   0  0  0  0  0  0  0  0  0  0  0  0
  141.0810  154.0220  133.1860 N   0  0  0  0  0  0  0  0  0  0  0  0
  139.9340  154.8670  132.9990 C   0  0  0  0  0  0  0  0  0  0  0  0
  138.7820  154.3560  132.9770 O   0  0  0  0  0  0  0  0  0  0  0  0
  140.0940  156.3490  132.8030 C   0  0  0  0  0  0  0  0  0  0  0  0
  139.3570  157.1380  133.9070 C   0  0  0  0  0  0  0  0  0  0  0  0
  140.2440  157.8930  134.8190 N   0  0  0  0  0  0  0  0  0  0  0  0
  140.7180  159.1790  134.2800 C   0  0  0  0  0  0  0  0  0  0  0  0
  141.8240  159.7440  135.1980 C   0  0  0  0  0  0  0  0  0  0  0  0
  141.8940  159.0750  136.4480 O   0  0  0  0  0  0  0  0  0  0  0  0
  140.6040  158.9790  137.0210 C   0  0  0  0  0  0  0  0  0  0  0  0
  139.7030  158.0480  136.1830 C   0  0  0  0  0  0  0  0  0  0  0  0
  141.1590  152.7010  132.9190 C   0  0  0  0  0  0  0  0  0  0  0  0
  140.1780  151.8660  132.3690 C   0  0  0  0  0  0  0  0  0  0  0  0
  137.9487  148.1952  130.6949 H   0  0  0  0  0  0  0  0  0  0  0  0
  141.9689  148.9289  132.4847 H   0  0  0  0  0  0  0  0  0  0  0  0
  143.6772  150.4713  133.5089 H   0  0  0  0  0  0  0  0  0  0  0  0
  144.1026  153.1873  134.3033 H   0  0  0  0  0  0  0  0  0  0  0  0
  141.9730  157.0090  135.7910 H   0  0  0  0  0  0  0  0  0  0  0  0
  141.1640  156.6021  132.8338 H   0  0  0  0  0  0  0  0  0  0  0  0
  139.6603  156.6217  131.8296 H   0  0  0  0  0  0  0  0  0  0  0  0
  138.6753  157.8521  133.4219 H   0  0  0  0  0  0  0  0  0  0  0  0
  138.8329  156.3945  134.5255 H   0  0  0  0  0  0  0  0  0  0  0  0
  141.1231  159.0261  133.2688 H   0  0  0  0  0  0  0  0  0  0  0  0
  139.8796  159.8897  134.2348 H   0  0  0  0  0  0  0  0  0  0  0  0
  142.7927  159.6384  134.6877 H   0  0  0  0  0  0  0  0  0  0  0  0
  141.5824  160.7982  135.3987 H   0  0  0  0  0  0  0  0  0  0  0  0
  140.6909  158.5756  138.0407 H   0  0  0  0  0  0  0  0  0  0  0  0
  140.1519  159.9815  137.0445 H   0  0  0  0  0  0  0  0  0  0  0  0
  139.6533  157.0613  136.6667 H   0  0  0  0  0  0  0  0  0  0  0  0
  138.6980  158.4905  136.1182 H   0  0  0  0  0  0  0  0  0  0  0  0
  139.1966  152.2650  132.0729 H   0  0  0  0  0  0  0  0  0  0  0  0
  1  2  3  0
  2  3  1  0
  3  4  2  0
  4  5  1  0
  5  6  2  0
  6  7  1  0
  7  8  2  0
  8  9  1  0
  9 10  1  0
  9 11  2  0
  8 12  1  0
 12 13  1  0
 13 14  2  0
 13 15  1  0
 15 16  1  0
 16 17  1  0
 17 18  1  0
 18 19  1  0
 19 20  1  0
 20 21  1  0
 21 22  1  0
 12 23  1  0
 23 24  2  0
 24  3  1  0
 23  6  1  0
 22 17  1  0
  1 25  1  0
  4 26  1  0
  5 27  1  0
  7 28  1  0
 10 29  1  0
 15 30  1  0
 15 31  1  0
 16 32  1  0
 16 33  1  0
 18 34  1  0
 18 35  1  0
 19 36  1  0
 19 37  1  0
 21 38  1  0
 21 39  1  0
 22 40  1  0
 22 41  1  0
 24 42  1  0
M  CHG  1  10  -1
M  END
>  <UniqueID>  (75) 
73

>  <SMILES>  (75) 
C#Cc1ccc2cc(C([NH-])=O)n(C(=O)CCN3CCOCC3)c2c1

>  <Energy>  (75) 
91.86265483385198

>  <Genealogy>  (75) 
C#Cc1ccc2cc(C([NH-])=O)n(C(=O)CCN3CCOCC3)c2c1 (protonated)
C#Cc1ccc2cc(C([NH-])=O)n(C(=O)CCN3CCOCC3)c2c1 (3D coordinates assigned)
C#Cc1ccc2cc(C([NH-])=O)n(C(=O)CCN3CCOCC3)c2c1 (nonaromatic ring conformer: 91.86265483385198 kcal/mol)

>  <smiles>  (75) 
C#Cc1ccc2cc(C(N)=O)n(C(=O)CCN3CCOCC3)c2c1

>  <score_type>  (75) 
oracle

>  <origin>  (75) 
adg

>  <m_score__min__energy>  (75) 
-7.5599999999999996

>  <m_primary>  (75) 
energy

$$$$
78:0
     RDKit          3D

 37 38  0  0  0  0  0  0  0  0999 V2000
  140.2630  158.9320  133.5790 C   0  0  0  0  0  0  0  0  0  0  0  0
  140.8680  158.7020  134.9690 C   0  0  2  0  0  0  0  0  0  0  0  0
  142.2000  158.0850  134.8680 N   0  0  0  0  0  0  0  0  0  0  0  0
  143.4000  158.7050  134.3570 C   0  0  0  0  0  0  0  0  0  0  0  0
  143.4740  160.0960  134.0670 C   0  0  0  0  0  0  0  0  0  0  0  0
  144.6520  160.6610  133.5520 C   0  0  0  0  0  0  0  0  0  0  0  0
  145.7400  159.8230  133.3360 C   0  0  0  0  0  0  0  0  0  0  0  0
  146.9860  160.1040  132.8240 C   0  0  0  0  0  0  0  0  0  0  0  0
  147.6660  158.8880  132.8190 C   0  0  0  0  0  0  0  0  0  0  0  0
  149.0840  158.7510  132.4220 C   0  0  0  0  0  0  0  0  0  0  0  0
  149.6420  157.4540  132.2240 N   0  0  0  0  0  0  0  0  0  0  0  0
  149.7990  159.7670  132.2240 O   0  0  0  0  0  0  0  0  0  0  0  0
  146.8680  157.8940  133.3010 N   0  0  0  0  0  0  0  0  0  0  0  0
  147.1690  156.4940  133.4070 C   0  0  0  0  0  0  0  0  0  0  0  0
  147.3680  155.8110  132.3650 O   0  0  0  0  0  0  0  0  0  0  0  0
  147.2170  155.8880  134.6680 O   0  0  0  0  0  0  0  0  0  0  0  0
  146.9210  154.5110  134.8880 C   0  0  0  0  0  0  0  0  0  0  0  0
  147.4340  154.0740  136.2230 C   0  0  0  0  0  0  0  0  0  0  0  0
  146.9670  153.0410  136.7710 O   0  0  0  0  0  0  0  0  0  0  0  0
  148.4050  154.8220  136.8760 O   0  0  0  0  0  0  0  0  0  0  0  0
  145.6940  158.4840  133.6160 C   0  0  0  0  0  0  0  0  0  0  0  0
  144.5280  157.8900  134.1120 C   0  0  0  0  0  0  0  0  0  0  0  0
  139.9690  157.9200  135.8880 C   0  0  0  0  0  0  0  0  0  0  0  0
  138.7530  158.2320  135.9910 O   0  0  0  0  0  0  0  0  0  0  0  0
  140.4470  156.8130  136.5810 O   0  0  0  0  0  0  0  0  0  0  0  0
  139.2395  159.3211  133.6844 H   0  0  0  0  0  0  0  0  0  0  0  0
  140.8769  159.6595  133.0277 H   0  0  0  0  0  0  0  0  0  0  0  0
  140.2385  157.9804  133.0277 H   0  0  0  0  0  0  0  0  0  0  0  0
  140.9773  159.6957  135.4280 H   0  0  0  0  0  0  0  0  0  0  0  0
  142.2900  157.1240  135.2700 H   0  0  0  0  0  0  0  0  0  0  0  0
  142.5982  160.7364  134.2483 H   0  0  0  0  0  0  0  0  0  0  0  0
  144.7121  161.7358  133.3260 H   0  0  0  0  0  0  0  0  0  0  0  0
  147.3647  161.0812  132.4897 H   0  0  0  0  0  0  0  0  0  0  0  0
  149.1600  156.7480  131.6240 H   0  0  0  0  0  0  0  0  0  0  0  0
  145.8314  154.3644  134.8528 H   0  0  0  0  0  0  0  0  0  0  0  0
  147.4087  153.9118  134.1049 H   0  0  0  0  0  0  0  0  0  0  0  0
  144.4903  156.8082  134.3076 H   0  0  0  0  0  0  0  0  0  0  0  0
  1  2  1  0
  2  3  1  0
  3  4  1  0
  4  5  2  0
  5  6  1  0
  6  7  2  0
  7  8  1  0
  8  9  2  0
  9 10  1  0
 10 11  1  0
 10 12  2  0
  9 13  1  0
 13 14  1  0
 14 15  2  0
 14 16  1  0
 16 17  1  0
 17 18  1  0
 18 19  2  0
 18 20  1  0
 13 21  1  0
 21 22  2  0
  2 23  1  0
 23 24  2  0
 23 25  1  0
 22  4  1  0
 21  7  1  0
  1 26  1  0
  1 27  1  0
  1 28  1  0
  2 29  1  1
  3 30  1  0
  5 31  1  0
  6 32  1  0
  8 33  1  0
 11 34  1  0
 17 35  1  0
 17 36  1  0
 22 37  1  0
M  CHG  3  11  -1  20  -1  25  -1
M  END
>  <UniqueID>  (76) 
74

>  <SMILES>  (76) 
C[C@H](Nc1ccc2cc(C([NH-])=O)n(C(=O)OCC(=O)[O-])c2c1)C(=O)[O-]

>  <Energy>  (76) 
74.6602974085354

>  <Genealogy>  (76) 
C[C@H](Nc1ccc2cc(C([NH-])=O)n(C(=O)OCC(=O)[O-])c2c1)C(=O)[O-] (protonated)
C[C@H](Nc1ccc2cc(C([NH-])=O)n(C(=O)OCC(=O)[O-])c2c1)C(=O)[O-] (3D coordinates assigned)
C[C@H](Nc1ccc2cc(C([NH-])=O)n(C(=O)OCC(=O)[O-])c2c1)C(=O)[O-] (optimized conformer: 74.6602974085354 kcal/mol)

>  <smiles>  (76) 
C[C@H](Nc1ccc2cc(C(N)=O)n(C(=O)OCC(=O)O)c2c1)C(=O)O

>  <score_type>  (76) 
oracle

>  <origin>  (76) 
adg

>  <m_score__min__energy>  (76) 
-6.8300000000000001

>  <m_primary>  (76) 
energy

$$$$
79:0
     RDKit          3D

 30 31  0  0  0  0  0  0  0  0999 V2000
  143.3160  161.4410  133.7270 N   0  0  0  0  0  0  0  0  0  0  0  0
  144.7200  161.4760  133.9760 C   0  0  0  0  0  0  0  0  0  0  0  0
  145.2140  162.4680  134.5750 O   0  0  0  0  0  0  0  0  0  0  0  0
  145.5890  160.3450  133.5930 C   0  0  0  0  0  0  0  0  0  0  0  0
  146.9550  160.4780  133.3540 C   0  0  0  0  0  0  0  0  0  0  0  0
  147.4100  159.2020  133.1190 C   0  0  0  0  0  0  0  0  0  0  0  0
  148.6900  158.7520  132.8140 C   0  0  0  0  0  0  0  0  0  0  0  0
  148.8680  157.3770  132.5900 C   0  0  0  0  0  0  0  0  0  0  0  0
  147.7750  156.4770  132.6670 C   0  0  0  0  0  0  0  0  0  0  0  0
  148.0070  155.0770  132.4150 N   0  0  0  0  0  0  0  0  0  0  0  0
  148.1110  154.0480  133.4510 C   0  0  0  0  0  0  0  0  0  0  0  0
  148.9610  152.8710  132.9710 C   0  0  0  0  0  0  0  0  0  0  0  0
  149.5660  153.1890  131.7490 O   0  0  0  0  0  0  0  0  0  0  0  0
  146.4850  156.9780  132.9730 C   0  0  0  0  0  0  0  0  0  0  0  0
  146.3410  158.3500  133.2130 C   0  0  0  0  0  0  0  0  0  0  0  0
  145.2130  159.0380  133.5010 N   0  0  0  0  0  0  0  0  0  0  0  0
  143.8870  158.4920  133.5980 C   0  0  0  0  0  0  0  0  0  0  0  0
  143.3790  157.8780  132.6230 O   0  0  0  0  0  0  0  0  0  0  0  0
  143.1630  158.6140  134.7770 O   0  0  0  0  0  0  0  0  0  0  0  0
  142.7690  160.5620  133.8580 H   0  0  0  0  0  0  0  0  0  0  0  0
  147.5445  161.4067  133.3534 H   0  0  0  0  0  0  0  0  0  0  0  0
  149.5367  159.4513  132.7502 H   0  0  0  0  0  0  0  0  0  0  0  0
  149.8705  156.9924  132.3512 H   0  0  0  0  0  0  0  0  0  0  0  0
  148.1020  154.7620  131.4220 H   0  0  0  0  0  0  0  0  0  0  0  0
  148.5755  154.4854  134.3471 H   0  0  0  0  0  0  0  0  0  0  0  0
  147.1005  153.6795  133.6816 H   0  0  0  0  0  0  0  0  0  0  0  0
  149.7389  152.6540  133.7179 H   0  0  0  0  0  0  0  0  0  0  0  0
  148.3173  151.9889  132.8385 H   0  0  0  0  0  0  0  0  0  0  0  0
  150.5440  153.1870  131.9180 H   0  0  0  0  0  0  0  0  0  0  0  0
  145.6167  156.3044  133.0209 H   0  0  0  0  0  0  0  0  0  0  0  0
  1  2  1  0
  2  3  2  0
  2  4  1  0
  4  5  2  0
  5  6  1  0
  6  7  2  0
  7  8  1  0
  8  9  2  0
  9 10  1  0
 10 11  1  0
 11 12  1  0
 12 13  1  0
  9 14  1  0
 14 15  2  0
 15 16  1  0
 16 17  1  0
 17 18  2  0
 17 19  1  0
 16  4  1  0
 15  6  1  0
  1 20  1  0
  5 21  1  0
  7 22  1  0
  8 23  1  0
 10 24  1  0
 11 25  1  0
 11 26  1  0
 12 27  1  0
 12 28  1  0
 13 29  1  0
 14 30  1  0
M  CHG  2   1  -1  19  -1
M  END
>  <UniqueID>  (77) 
75

>  <SMILES>  (77) 
[NH-]C(=O)c1cc2ccc(NCCO)cc2n1C(=O)[O-]

>  <Energy>  (77) 
67.35783957287744

>  <Genealogy>  (77) 
[NH-]C(=O)c1cc2ccc(NCCO)cc2n1C(=O)[O-] (protonated)
[NH-]C(=O)c1cc2ccc(NCCO)cc2n1C(=O)[O-] (3D coordinates assigned)
[NH-]C(=O)c1cc2ccc(NCCO)cc2n1C(=O)[O-] (optimized conformer: 67.35783957287744 kcal/mol)

>  <smiles>  (77) 
NC(=O)c1cc2ccc(NCCO)cc2n1C(=O)O

>  <score_type>  (77) 
oracle

>  <origin>  (77) 
adg

>  <m_score__min__energy>  (77) 
-6.2599999999999998

>  <m_primary>  (77) 
energy

$$$$
80:0
     RDKit          3D

 47 51  0  0  0  0  0  0  0  0999 V2000
  141.5620  159.7000  135.1690 C   0  0  0  0  0  0  0  0  0  0  0  0
  142.3740  160.3510  134.0950 C   0  0  0  0  0  0  0  0  0  0  0  0
  141.8360  161.2310  133.3690 O   0  0  0  0  0  0  0  0  0  0  0  0
  143.7530  159.9990  133.8870 N   0  0  0  0  0  0  0  0  0  0  0  0
  144.8230  160.8440  133.8600 C   0  0  0  0  0  0  0  0  0  0  0  0
  144.8000  162.2800  134.2020 C   0  0  0  0  0  0  0  0  0  0  0  0
  143.9750  163.1910  133.4810 N   0  0  0  0  0  0  0  0  0  0  0  0
  145.4780  162.7000  135.1770 O   0  0  0  0  0  0  0  0  0  0  0  0
  145.9910  160.1450  133.5570 C   0  0  0  0  0  0  0  0  0  0  0  0
  145.6020  158.8340  133.4040 C   0  0  0  0  0  0  0  0  0  0  0  0
  146.3590  157.7080  133.1050 C   0  0  0  0  0  0  0  0  0  0  0  0
  145.6940  156.4750  132.9990 C   0  0  0  0  0  0  0  0  0  0  0  0
  144.2850  156.3890  133.1720 C   0  0  0  0  0  0  0  0  0  0  0  0
  143.5880  155.0780  133.0500 C   0  0  0  0  0  0  0  0  0  0  0  0
  142.2890  154.8990  133.5490 C   0  0  0  0  0  0  0  0  0  0  0  0
  141.6480  153.6660  133.4200 C   0  0  0  0  0  0  0  0  0  0  0  0
  142.3140  152.5910  132.8050 C   0  0  0  0  0  0  0  0  0  0  0  0
  141.6730  151.3020  132.6800 N   0  0  0  0  0  0  0  0  0  0  0  0
  140.2270  151.1160  132.6040 C   0  0  0  0  0  0  0  0  0  0  0  0
  139.9930  149.6140  132.4960 C   0  0  1  0  0  0  0  0  0  0  0  0
  140.5310  148.9240  131.2480 C   0  0  0  0  0  0  0  0  0  0  0  0
  141.3570  148.9420  132.5290 C   0  0  1  0  0  0  0  0  0  0  0  0
  142.4030  150.0410  132.6340 C   0  0  0  0  0  0  0  0  0  0  0  0
  143.5830  152.7840  132.3330 N   0  0  0  0  0  0  0  0  0  0  0  0
  144.2150  153.9830  132.4300 C   0  0  0  0  0  0  0  0  0  0  0  0
  143.5520  157.5650  133.4630 C   0  0  0  0  0  0  0  0  0  0  0  0
  144.2470  158.7720  133.6020 C   0  0  0  0  0  0  0  0  0  0  0  0
  141.9440  160.0063  136.1540 H   0  0  0  0  0  0  0  0  0  0  0  0
  140.5106  160.0082  135.0715 H   0  0  0  0  0  0  0  0  0  0  0  0
  141.6342  158.6067  135.0715 H   0  0  0  0  0  0  0  0  0  0  0  0
  142.9810  162.9520  133.2620 H   0  0  0  0  0  0  0  0  0  0  0  0
  147.0073  160.5546  133.4608 H   0  0  0  0  0  0  0  0  0  0  0  0
  147.4465  157.7798  132.9557 H   0  0  0  0  0  0  0  0  0  0  0  0
  146.2706  155.5643  132.7793 H   0  0  0  0  0  0  0  0  0  0  0  0
  141.7731  155.7347  134.0444 H   0  0  0  0  0  0  0  0  0  0  0  0
  140.6236  153.5353  133.7988 H   0  0  0  0  0  0  0  0  0  0  0  0
  139.7441  151.5124  133.5094 H   0  0  0  0  0  0  0  0  0  0  0  0
  139.8004  151.6497  131.7419 H   0  0  0  0  0  0  0  0  0  0  0  0
  139.0177  149.5507  133.0007 H   0  0  0  0  0  0  0  0  0  0  0  0
  140.0767  147.9849  130.8992 H   0  0  0  0  0  0  0  0  0  0  0  0
  140.7052  149.2265  130.2049 H   0  0  0  0  0  0  0  0  0  0  0  0
  141.8772  148.1435  133.0784 H   0  0  0  0  0  0  0  0  0  0  0  0
  142.9987  149.9128  133.5498 H   0  0  0  0  0  0  0  0  0  0  0  0
  143.0971  150.0133  131.7811 H   0  0  0  0  0  0  0  0  0  0  0  0
  144.0960  152.0090  131.8600 H   0  0  0  0  0  0  0  0  0  0  0  0
  145.2287  154.0982  132.0187 H   0  0  0  0  0  0  0  0  0  0  0  0
  142.4585  157.5307  133.5775 H   0  0  0  0  0  0  0  0  0  0  0  0
  1  2  1  0
  2  3  2  0
  2  4  1  0
  4  5  1  0
  5  6  1  0
  6  7  1  0
  6  8  2  0
  5  9  2  0
  9 10  1  0
 10 11  2  0
 11 12  1  0
 12 13  2  0
 13 14  1  0
 14 15  2  0
 15 16  1  0
 16 17  2  0
 17 18  1  0
 18 19  1  0
 19 20  1  0
 20 21  1  0
 21 22  1  0
 22 23  1  0
 17 24  1  0
 24 25  2  0
 13 26  1  0
 26 27  2  0
 27  4  1  0
 27 10  1  0
 25 14  1  0
 23 18  1  0
 22 20  1  0
  1 28  1  0
  1 29  1  0
  1 30  1  0
  7 31  1  0
  9 32  1  0
 11 33  1  0
 12 34  1  0
 15 35  1  0
 16 36  1  0
 19 37  1  0
 19 38  1  0
 20 39  1  1
 21 40  1  0
 21 41  1  0
 22 42  1  1
 23 43  1  0
 23 44  1  0
 24 45  1  0
 25 46  1  0
 26 47  1  0
M  CHG  2   7  -1  24   1
M  END
>  <UniqueID>  (78) 
76

>  <SMILES>  (78) 
CC(=O)n1c(C([NH-])=O)cc2ccc(-c3ccc(N4C[C@H]5C[C@H]5C4)[nH+]c3)cc21

>  <Energy>  (78) 
362.91718380286966

>  <Genealogy>  (78) 
CC(=O)n1c(C([NH-])=O)cc2ccc(-c3ccc(N4CC5CC5C4)[nH+]c3)cc21 (protonated)
CC(=O)n1c(C([NH-])=O)cc2ccc(-c3ccc(N4C[C@H]5C[C@H]5C4)[nH+]c3)cc21 (chirality)
CC(=O)n1c(C([NH-])=O)cc2ccc(-c3ccc(N4C[C@H]5C[C@H]5C4)[nH+]c3)cc21 (3D coordinates assigned)
CC(=O)n1c(C([NH-])=O)cc2ccc(-c3ccc(N4C[C@H]5C[C@H]5C4)[nH+]c3)cc21 (nonaromatic ring conformer: 362.91718380286966 kcal/mol)

>  <smiles>  (78) 
CC(=O)n1c(C(N)=O)cc2ccc(-c3ccc(N4CC5CC5C4)nc3)cc21

>  <score_type>  (78) 
oracle

>  <origin>  (78) 
adg

>  <m_score__min__energy>  (78) 
-8.9600000000000009

>  <m_primary>  (78) 
energy

$$$$
81:0
     RDKit          3D

 60 62  0  0  0  0  0  0  0  0999 V2000
  140.8540  153.2110  133.1090 C   0  0  0  0  0  0  0  0  0  0  0  0
  141.8050  152.0990  133.2210 N   0  0  0  0  0  0  0  0  0  0  0  0
  141.3240  150.7810  133.6590 C   0  0  0  0  0  0  0  0  0  0  0  0
  140.6560  150.0510  132.5250 C   0  0  0  0  0  0  0  0  0  0  0  0
  141.3880  149.1460  131.7370 C   0  0  0  0  0  0  0  0  0  0  0  0
  140.7750  148.4900  130.6620 C   0  0  0  0  0  0  0  0  0  0  0  0
  139.4210  148.7080  130.3850 C   0  0  0  0  0  0  0  0  0  0  0  0
  138.6810  149.5970  131.1720 C   0  0  0  0  0  0  0  0  0  0  0  0
  139.2940  150.2700  132.2350 C   0  0  0  0  0  0  0  0  0  0  0  0
  143.2140  152.2830  132.9440 C   0  0  0  0  0  0  0  0  0  0  0  0
  144.0450  151.4310  133.3580 O   0  0  0  0  0  0  0  0  0  0  0  0
  143.7500  153.4790  132.1820 C   0  0  0  0  0  0  0  0  0  0  0  0
  145.1740  153.7580  132.4460 N   0  0  0  0  0  0  0  0  0  0  0  0
  145.4140  155.1450  132.7630 C   0  0  0  0  0  0  0  0  0  0  0  0
  146.7420  155.6350  132.8530 C   0  0  0  0  0  0  0  0  0  0  0  0
  146.9870  156.9860  133.1520 C   0  0  0  0  0  0  0  0  0  0  0  0
  145.8910  157.8200  133.3510 C   0  0  0  0  0  0  0  0  0  0  0  0
  145.8440  159.1530  133.6920 C   0  0  0  0  0  0  0  0  0  0  0  0
  144.4910  159.4620  133.7890 C   0  0  0  0  0  0  0  0  0  0  0  0
  143.9880  160.8180  134.0810 C   0  0  0  0  0  0  0  0  0  0  0  0
  142.6620  161.1950  133.7340 N   0  0  0  0  0  0  0  0  0  0  0  0
  144.7570  161.6690  134.6010 O   0  0  0  0  0  0  0  0  0  0  0  0
  143.7300  158.3620  133.5230 N   0  0  0  0  0  0  0  0  0  0  0  0
  142.3050  158.2330  133.6460 C   0  0  0  0  0  0  0  0  0  0  0  0
  141.5570  158.7020  132.7500 O   0  0  0  0  0  0  0  0  0  0  0  0
  141.7650  157.5530  134.7480 O   0  0  0  0  0  0  0  0  0  0  0  0
  140.7070  158.0210  135.5980 C   0  0  0  0  0  0  0  0  0  0  0  0
  140.9450  159.4920  135.9870 C   0  0  0  0  0  0  0  0  0  0  0  0
  140.7320  157.1610  136.8710 C   0  0  0  0  0  0  0  0  0  0  0  0
  139.3370  157.8580  134.9110 C   0  0  0  0  0  0  0  0  0  0  0  0
  144.6020  157.3670  133.2520 C   0  0  0  0  0  0  0  0  0  0  0  0
  144.3280  156.0260  132.9640 C   0  0  0  0  0  0  0  0  0  0  0  0
  140.5649  153.5490  134.1151 H   0  0  0  0  0  0  0  0  0  0  0  0
  141.3247  154.0425  132.5640 H   0  0  0  0  0  0  0  0  0  0  0  0
  139.9595  152.8750  132.5640 H   0  0  0  0  0  0  0  0  0  0  0  0
  142.1774  150.1866  134.0173 H   0  0  0  0  0  0  0  0  0  0  0  0
  140.5907  150.9241  134.4663 H   0  0  0  0  0  0  0  0  0  0  0  0
  142.4464  148.9522  131.9655 H   0  0  0  0  0  0  0  0  0  0  0  0
  141.3596  147.8017  130.0339 H   0  0  0  0  0  0  0  0  0  0  0  0
  138.9386  148.1807  129.5488 H   0  0  0  0  0  0  0  0  0  0  0  0
  137.6161  149.7672  130.9550 H   0  0  0  0  0  0  0  0  0  0  0  0
  138.7102  150.9732  132.8471 H   0  0  0  0  0  0  0  0  0  0  0  0
  143.6267  153.2892  131.1056 H   0  0  0  0  0  0  0  0  0  0  0  0
  143.1813  154.3578  132.5199 H   0  0  0  0  0  0  0  0  0  0  0  0
  145.5250  153.1370  133.2100 H   0  0  0  0  0  0  0  0  0  0  0  0
  145.7230  153.5110  131.5900 H   0  0  0  0  0  0  0  0  0  0  0  0
  147.5877  154.9513  132.6873 H   0  0  0  0  0  0  0  0  0  0  0  0
  148.0141  157.3726  133.2265 H   0  0  0  0  0  0  0  0  0  0  0  0
  146.6957  159.8302  133.8535 H   0  0  0  0  0  0  0  0  0  0  0  0
  142.1790  160.7520  132.9200 H   0  0  0  0  0  0  0  0  0  0  0  0
  140.9598  159.5836  137.0831 H   0  0  0  0  0  0  0  0  0  0  0  0
  141.9092  159.8281  135.5779 H   0  0  0  0  0  0  0  0  0  0  0  0
  140.1360  160.1150  135.5779 H   0  0  0  0  0  0  0  0  0  0  0  0
  140.7130  157.8147  137.7555 H   0  0  0  0  0  0  0  0  0  0  0  0
  139.8527  156.5002  136.8844 H   0  0  0  0  0  0  0  0  0  0  0  0
  141.6482  156.5524  136.8844 H   0  0  0  0  0  0  0  0  0  0  0  0
  138.5520  157.7646  135.6759 H   0  0  0  0  0  0  0  0  0  0  0  0
  139.1345  158.7384  134.2834 H   0  0  0  0  0  0  0  0  0  0  0  0
  139.3467  156.9547  134.2834 H   0  0  0  0  0  0  0  0  0  0  0  0
  143.2910  155.6657  132.8956 H   0  0  0  0  0  0  0  0  0  0  0  0
  1  2  1  0
  2  3  1  0
  3  4  1  0
  4  5  2  0
  5  6  1  0
  6  7  2  0
  7  8  1  0
  8  9  2  0
  2 10  1  0
 10 11  2  0
 10 12  1  0
 12 13  1  0
 13 14  1  0
 14 15  2  0
 15 16  1  0
 16 17  2  0
 17 18  1  0
 18 19  2  0
 19 20  1  0
 20 21  1  0
 20 22  2  0
 19 23  1  0
 23 24  1  0
 24 25  2  0
 24 26  1  0
 26 27  1  0
 27 28  1  0
 27 29  1  0
 27 30  1  0
 23 31  1  0
 31 32  2  0
  9  4  1  0
 32 14  1  0
 31 17  1  0
  1 33  1  0
  1 34  1  0
  1 35  1  0
  3 36  1  0
  3 37  1  0
  5 38  1  0
  6 39  1  0
  7 40  1  0
  8 41  1  0
  9 42  1  0
 12 43  1  0
 12 44  1  0
 13 45  1  0
 13 46  1  0
 15 47  1  0
 16 48  1  0
 18 49  1  0
 21 50  1  0
 28 51  1  0
 28 52  1  0
 28 53  1  0
 29 54  1  0
 29 55  1  0
 29 56  1  0
 30 57  1  0
 30 58  1  0
 30 59  1  0
 32 60  1  0
M  CHG  2  13   1  21  -1
M  END
>  <UniqueID>  (79) 
77

>  <SMILES>  (79) 
CN(Cc1ccccc1)C(=O)C[NH2+]c1ccc2cc(C([NH-])=O)n(C(=O)OC(C)(C)C)c2c1

>  <Energy>  (79) 
92.84373617140193

>  <Genealogy>  (79) 
CN(Cc1ccccc1)C(=O)C[NH2+]c1ccc2cc(C([NH-])=O)n(C(=O)OC(C)(C)C)c2c1 (protonated)
CN(Cc1ccccc1)C(=O)C[NH2+]c1ccc2cc(C([NH-])=O)n(C(=O)OC(C)(C)C)c2c1 (3D coordinates assigned)
CN(Cc1ccccc1)C(=O)C[NH2+]c1ccc2cc(C([NH-])=O)n(C(=O)OC(C)(C)C)c2c1 (optimized conformer: 92.84373617140193 kcal/mol)

>  <smiles>  (79) 
CN(Cc1ccccc1)C(=O)CNc1ccc2cc(C(N)=O)n(C(=O)OC(C)(C)C)c2c1

>  <score_type>  (79) 
oracle

>  <origin>  (79) 
adg

>  <m_score__min__energy>  (79) 
-9.3499999999999996

>  <m_primary>  (79) 
energy

$$$$
82:0
     RDKit          3D

 40 41  0  0  0  0  0  0  0  0999 V2000
  139.3680  157.1080  132.7210 C   0  0  0  0  0  0  0  0  0  0  0  0
  140.3550  158.1690  132.2200 C   0  0  2  0  0  0  0  0  0  0  0  0
  141.7400  157.7320  132.4270 N   0  0  0  0  0  0  0  0  0  0  0  0
  140.1050  159.4830  132.9100 C   0  0  0  0  0  0  0  0  0  0  0  0
  139.1500  160.2210  132.5400 O   0  0  0  0  0  0  0  0  0  0  0  0
  140.9440  159.8780  133.9540 O   0  0  0  0  0  0  0  0  0  0  0  0
  142.1400  160.6210  133.7400 C   0  0  0  0  0  0  0  0  0  0  0  0
  143.1150  159.7910  133.1180 O   0  0  0  0  0  0  0  0  0  0  0  0
  144.4830  159.8890  133.3940 C   0  0  0  0  0  0  0  0  0  0  0  0
  144.9870  160.9950  133.7310 O   0  0  0  0  0  0  0  0  0  0  0  0
  145.3120  158.7200  133.3150 N   0  0  0  0  0  0  0  0  0  0  0  0
  145.0120  157.4570  133.7320 C   0  0  0  0  0  0  0  0  0  0  0  0
  143.6900  156.9880  134.1980 C   0  0  0  0  0  0  0  0  0  0  0  0
  142.9260  157.7540  135.1250 N   0  0  0  0  0  0  0  0  0  0  0  0
  143.2080  155.9210  133.7340 O   0  0  0  0  0  0  0  0  0  0  0  0
  146.1150  156.6180  133.5850 C   0  0  0  0  0  0  0  0  0  0  0  0
  147.1070  157.4100  133.0530 C   0  0  0  0  0  0  0  0  0  0  0  0
  148.4170  157.0920  132.7080 C   0  0  0  0  0  0  0  0  0  0  0  0
  149.2320  158.1180  132.2030 C   0  0  0  0  0  0  0  0  0  0  0  0
  148.7320  159.4370  132.0690 C   0  0  0  0  0  0  0  0  0  0  0  0
  149.6050  160.5200  131.5050 C   0  0  0  0  0  0  0  0  0  0  0  0
  149.6030  160.4310  129.7270 Cl  0  0  0  0  0  0  0  0  0  0  0  0
  147.3920  159.7200  132.4160 C   0  0  0  0  0  0  0  0  0  0  0  0
  146.5980  158.6740  132.9010 C   0  0  0  0  0  0  0  0  0  0  0  0
  139.3628  157.1024  133.8210 H   0  0  0  0  0  0  0  0  0  0  0  0
  138.3590  157.3419  132.3507 H   0  0  0  0  0  0  0  0  0  0  0  0
  139.6742  156.1185  132.3507 H   0  0  0  0  0  0  0  0  0  0  0  0
  140.1984  158.3053  131.1398 H   0  0  0  0  0  0  0  0  0  0  0  0
  142.0240  157.9160  133.4160 H   0  0  0  0  0  0  0  0  0  0  0  0
  142.3900  158.2400  131.7840 H   0  0  0  0  0  0  0  0  0  0  0  0
  141.8160  156.7030  132.2500 H   0  0  0  0  0  0  0  0  0  0  0  0
  141.9244  161.4820  133.0902 H   0  0  0  0  0  0  0  0  0  0  0  0
  142.5266  160.9759  134.7068 H   0  0  0  0  0  0  0  0  0  0  0  0
  142.4540  158.6380  134.8320 H   0  0  0  0  0  0  0  0  0  0  0  0
  146.1792  155.5499  133.8400 H   0  0  0  0  0  0  0  0  0  0  0  0
  148.8022  156.0686  132.8272 H   0  0  0  0  0  0  0  0  0  0  0  0
  150.2683  157.8956  131.9087 H   0  0  0  0  0  0  0  0  0  0  0  0
  149.2210  161.5008  131.8220 H   0  0  0  0  0  0  0  0  0  0  0  0
  150.6327  160.3875  131.8743 H   0  0  0  0  0  0  0  0  0  0  0  0
  146.9833  160.7355  132.3079 H   0  0  0  0  0  0  0  0  0  0  0  0
  1  2  1  0
  2  3  1  0
  2  4  1  0
  4  5  2  0
  4  6  1  0
  6  7  1  0
  7  8  1  0
  8  9  1  0
  9 10  2  0
  9 11  1  0
 11 12  1  0
 12 13  1  0
 13 14  1  0
 13 15  2  0
 12 16  2  0
 16 17  1  0
 17 18  2  0
 18 19  1  0
 19 20  2  0
 20 21  1  0
 21 22  1  0
 20 23  1  0
 23 24  2  0
 24 11  1  0
 24 17  1  0
  1 25  1  0
  1 26  1  0
  1 27  1  0
  2 28  1  6
  3 29  1  0
  3 30  1  0
  3 31  1  0
  7 32  1  0
  7 33  1  0
 14 34  1  0
 16 35  1  0
 18 36  1  0
 19 37  1  0
 21 38  1  0
 21 39  1  0
 23 40  1  0
M  CHG  2   3   1  14  -1
M  END
>  <UniqueID>  (80) 
78

>  <SMILES>  (80) 
C[C@H]([NH3+])C(=O)OCOC(=O)n1c(C([NH-])=O)cc2ccc(CCl)cc21

>  <Energy>  (80) 
71.34037999009891

>  <Genealogy>  (80) 
CC([NH3+])C(=O)OCOC(=O)n1c(C([NH-])=O)cc2ccc(CCl)cc21 (protonated)
C[C@H]([NH3+])C(=O)OCOC(=O)n1c(C([NH-])=O)cc2ccc(CCl)cc21 (chirality)
C[C@H]([NH3+])C(=O)OCOC(=O)n1c(C([NH-])=O)cc2ccc(CCl)cc21 (3D coordinates assigned)
C[C@H]([NH3+])C(=O)OCOC(=O)n1c(C([NH-])=O)cc2ccc(CCl)cc21 (optimized conformer: 71.34037999009891 kcal/mol)

>  <smiles>  (80) 
CC(N)C(=O)OCOC(=O)n1c(C(N)=O)cc2ccc(CCl)cc21

>  <score_type>  (80) 
oracle

>  <origin>  (80) 
adg

>  <m_score__min__energy>  (80) 
-5.7999999999999998

>  <m_primary>  (80) 
energy

$$$$
83:0
     RDKit          3D

 41 42  0  0  0  0  0  0  0  0999 V2000
  139.3530  157.3090  133.5810 C   0  0  0  0  0  0  0  0  0  0  0  0
  140.3510  157.8340  134.6110 C   0  0  2  0  0  0  0  0  0  0  0  0
  141.4510  158.3980  133.9250 O   0  0  0  0  0  0  0  0  0  0  0  0
  141.8900  159.8850  134.6480 P   0  0  2  0  0  0  0  0  0  0  0  0
  140.9950  160.1900  135.8300 O   0  0  0  0  0  0  0  0  0  0  0  0
  141.7410  161.1250  133.5070 O   0  0  0  0  0  0  0  0  0  0  0  0
  143.5120  159.8150  135.1680 O   0  0  0  0  0  0  0  0  0  0  0  0
  144.3410  160.0150  134.0490 C   0  0  0  0  0  0  0  0  0  0  0  0
  144.4930  158.7190  133.3140 C   0  0  0  0  0  0  0  0  0  0  0  0
  143.5400  158.2950  132.6060 O   0  0  0  0  0  0  0  0  0  0  0  0
  145.7060  157.9560  133.4060 N   0  0  0  0  0  0  0  0  0  0  0  0
  145.9090  156.8110  134.1190 C   0  0  0  0  0  0  0  0  0  0  0  0
  144.8590  156.0670  134.8550 C   0  0  0  0  0  0  0  0  0  0  0  0
  143.5770  156.6520  135.0940 N   0  0  0  0  0  0  0  0  0  0  0  0
  145.0950  154.9120  135.2960 O   0  0  0  0  0  0  0  0  0  0  0  0
  147.2330  156.3920  133.9980 C   0  0  0  0  0  0  0  0  0  0  0  0
  147.8400  157.3270  133.1900 C   0  0  0  0  0  0  0  0  0  0  0  0
  149.1550  157.4020  132.7410 C   0  0  0  0  0  0  0  0  0  0  0  0
  149.5120  158.4920  131.9310 C   0  0  0  0  0  0  0  0  0  0  0  0
  148.5640  159.4970  131.6050 C   0  0  0  0  0  0  0  0  0  0  0  0
  148.9470  160.6420  130.7030 C   0  0  0  0  0  0  0  0  0  0  0  0
  148.3810  160.4880  129.4480 F   0  0  0  0  0  0  0  0  0  0  0  0
  148.5000  161.8260  131.2570 F   0  0  0  0  0  0  0  0  0  0  0  0
  150.3210  160.7050  130.5510 F   0  0  0  0  0  0  0  0  0  0  0  0
  147.2320  159.3700  132.0620 C   0  0  0  0  0  0  0  0  0  0  0  0
  146.8990  158.2620  132.8500 C   0  0  0  0  0  0  0  0  0  0  0  0
  140.8090  156.6980  135.4820 C   0  0  0  0  0  0  0  0  0  0  0  0
  141.1130  156.9010  136.6880 O   0  0  0  0  0  0  0  0  0  0  0  0
  140.9400  155.4220  134.9480 O   0  0  0  0  0  0  0  0  0  0  0  0
  138.4944  156.8573  134.0995 H   0  0  0  0  0  0  0  0  0  0  0  0
  139.0048  158.1406  132.9508 H   0  0  0  0  0  0  0  0  0  0  0  0
  139.8410  156.5509  132.9508 H   0  0  0  0  0  0  0  0  0  0  0  0
  139.8815  158.6002  135.2454 H   0  0  0  0  0  0  0  0  0  0  0  0
  143.8876  160.7647  133.3839 H   0  0  0  0  0  0  0  0  0  0  0  0
  145.3279  160.3725  134.3780 H   0  0  0  0  0  0  0  0  0  0  0  0
  143.3170  157.5800  134.6950 H   0  0  0  0  0  0  0  0  0  0  0  0
  142.8590  156.1290  135.6420 H   0  0  0  0  0  0  0  0  0  0  0  0
  147.6949  155.5028  134.4519 H   0  0  0  0  0  0  0  0  0  0  0  0
  149.8918  156.6315  133.0121 H   0  0  0  0  0  0  0  0  0  0  0  0
  150.5390  158.5681  131.5443 H   0  0  0  0  0  0  0  0  0  0  0  0
  146.4745  160.1248  131.8041 H   0  0  0  0  0  0  0  0  0  0  0  0
  1  2  1  0
  2  3  1  0
  3  4  1  0
  4  5  2  0
  4  6  1  6
  4  7  1  0
  7  8  1  0
  8  9  1  0
  9 10  2  0
  9 11  1  0
 11 12  1  0
 12 13  1  0
 13 14  1  0
 13 15  2  0
 12 16  2  0
 16 17  1  0
 17 18  2  0
 18 19  1  0
 19 20  2  0
 20 21  1  0
 21 22  1  0
 21 23  1  0
 21 24  1  0
 20 25  1  0
 25 26  2  0
  2 27  1  0
 27 28  2  0
 27 29  1  0
 26 11  1  0
 26 17  1  0
  1 30  1  0
  1 31  1  0
  1 32  1  0
  2 33  1  1
  8 34  1  0
  8 35  1  0
 14 36  1  0
 14 37  1  0
 16 38  1  0
 18 39  1  0
 19 40  1  0
 25 41  1  0
M  CHG  2   6  -1  29  -1
M  END
>  <UniqueID>  (81) 
79

>  <SMILES>  (81) 
C[C@H](O[P@](=O)([O-])OCC(=O)n1c(C(N)=O)cc2ccc(C(F)(F)F)cc21)C(=O)[O-]

>  <Energy>  (81) 
77.14529567024127

>  <Genealogy>  (81) 
C[C@H](OP(=O)([O-])OCC(=O)n1c(C(N)=O)cc2ccc(C(F)(F)F)cc21)C(=O)[O-] (protonated)
C[C@H](O[P@](=O)([O-])OCC(=O)n1c(C(N)=O)cc2ccc(C(F)(F)F)cc21)C(=O)[O-] (chirality)
C[C@H](O[P@](=O)([O-])OCC(=O)n1c(C(N)=O)cc2ccc(C(F)(F)F)cc21)C(=O)[O-] (3D coordinates assigned)
C[C@H](O[P@](=O)([O-])OCC(=O)n1c(C(N)=O)cc2ccc(C(F)(F)F)cc21)C(=O)[O-] (optimized conformer: 77.14529567024127 kcal/mol)

>  <smiles>  (81) 
C[C@H](OP(=O)(O)OCC(=O)n1c(C(N)=O)cc2ccc(C(F)(F)F)cc21)C(=O)O

>  <score_type>  (81) 
oracle

>  <origin>  (81) 
adg

>  <m_score__min__energy>  (81) 
-6.3300000000000001

>  <m_primary>  (81) 
energy

$$$$
84:0
     RDKit          3D

 43 44  0  0  0  0  0  0  0  0999 V2000
  141.3030  159.7720  132.4820 N   0  0  0  0  0  0  0  0  0  0  0  0
  142.1870  160.1970  133.5200 C   0  0  0  0  0  0  0  0  0  0  0  0
  141.7270  160.8570  134.4880 O   0  0  0  0  0  0  0  0  0  0  0  0
  143.6200  159.8420  133.4830 C   0  0  0  0  0  0  0  0  0  0  0  0
  144.6560  160.7700  133.5630 C   0  0  0  0  0  0  0  0  0  0  0  0
  145.8110  160.0420  133.3880 C   0  0  0  0  0  0  0  0  0  0  0  0
  147.1410  160.4560  133.3810 C   0  0  0  0  0  0  0  0  0  0  0  0
  148.1340  159.4780  133.1990 C   0  0  0  0  0  0  0  0  0  0  0  0
  147.7830  158.1140  133.0320 C   0  0  0  0  0  0  0  0  0  0  0  0
  148.8480  157.0710  132.8500 C   0  0  0  0  0  0  0  0  0  0  0  0
  149.7490  157.4880  131.8880 F   0  0  0  0  0  0  0  0  0  0  0  0
  148.2690  155.8810  132.4480 F   0  0  0  0  0  0  0  0  0  0  0  0
  146.4240  157.7340  133.0440 C   0  0  0  0  0  0  0  0  0  0  0  0
  145.4570  158.7300  133.2150 C   0  0  0  0  0  0  0  0  0  0  0  0
  144.1160  158.5900  133.2740 N   0  0  0  0  0  0  0  0  0  0  0  0
  143.3960  157.3460  133.2280 C   0  0  0  0  0  0  0  0  0  0  0  0
  143.9640  156.3140  132.7800 O   0  0  0  0  0  0  0  0  0  0  0  0
  141.9820  157.2490  133.7190 C   0  0  0  0  0  0  0  0  0  0  0  0
  141.0900  157.3710  132.6290 O   0  0  0  0  0  0  0  0  0  0  0  0
  139.9030  156.6410  132.8700 C   0  0  0  0  0  0  0  0  0  0  0  0
  138.8350  157.5570  133.4700 C   0  0  0  0  0  0  0  0  0  0  0  0
  138.8950  158.8390  132.8720 O   0  0  0  0  0  0  0  0  0  0  0  0
  137.9320  158.9760  131.8440 C   0  0  0  0  0  0  0  0  0  0  0  0
  138.5430  159.6470  130.6110 C   0  0  0  0  0  0  0  0  0  0  0  0
  139.9000  159.3120  130.4900 O   0  0  0  0  0  0  0  0  0  0  0  0
  141.6600  159.2680  131.6400 H   0  0  0  0  0  0  0  0  0  0  0  0
  140.2880  160.0080  132.5290 H   0  0  0  0  0  0  0  0  0  0  0  0
  144.5694  161.8537  133.7304 H   0  0  0  0  0  0  0  0  0  0  0  0
  147.4059  161.5153  133.5138 H   0  0  0  0  0  0  0  0  0  0  0  0
  149.1935  159.7733  133.1860 H   0  0  0  0  0  0  0  0  0  0  0  0
  149.3733  156.9212  133.8048 H   0  0  0  0  0  0  0  0  0  0  0  0
  146.1323  156.6804  132.9219 H   0  0  0  0  0  0  0  0  0  0  0  0
  141.8307  156.2754  134.2082 H   0  0  0  0  0  0  0  0  0  0  0  0
  141.7900  158.0579  134.4393 H   0  0  0  0  0  0  0  0  0  0  0  0
  139.5335  156.2240  131.9215 H   0  0  0  0  0  0  0  0  0  0  0  0
  140.1184  155.8272  133.5781 H   0  0  0  0  0  0  0  0  0  0  0  0
  137.8411  157.1201  133.2930 H   0  0  0  0  0  0  0  0  0  0  0  0
  139.0155  157.6573  134.5505 H   0  0  0  0  0  0  0  0  0  0  0  0
  137.5590  157.9796  131.5645 H   0  0  0  0  0  0  0  0  0  0  0  0
  137.1083  159.6038  132.2146 H   0  0  0  0  0  0  0  0  0  0  0  0
  138.0056  159.3103  129.7122 H   0  0  0  0  0  0  0  0  0  0  0  0
  138.4546  160.7380  130.7197 H   0  0  0  0  0  0  0  0  0  0  0  0
  140.0880  158.6310  131.1860 H   0  0  0  0  0  0  0  0  0  0  0  0
  1  2  1  0
  2  3  2  0
  2  4  1  0
  4  5  2  0
  5  6  1  0
  6  7  2  0
  7  8  1  0
  8  9  2  0
  9 10  1  0
 10 11  1  0
 10 12  1  0
  9 13  1  0
 13 14  2  0
 14 15  1  0
 15 16  1  0
 16 17  2  0
 16 18  1  0
 18 19  1  0
 19 20  1  0
 20 21  1  0
 21 22  1  0
 22 23  1  0
 23 24  1  0
 24 25  1  0
 15  4  1  0
 14  6  1  0
  1 26  1  0
  1 27  1  0
  5 28  1  0
  7 29  1  0
  8 30  1  0
 10 31  1  0
 13 32  1  0
 18 33  1  0
 18 34  1  0
 20 35  1  0
 20 36  1  0
 21 37  1  0
 21 38  1  0
 23 39  1  0
 23 40  1  0
 24 41  1  0
 24 42  1  0
 25 43  1  0
M  END
>  <UniqueID>  (82) 
80

>  <SMILES>  (82) 
NC(=O)c1cc2ccc(C(F)F)cc2n1C(=O)COCCOCCO

>  <Energy>  (82) 
81.95765603417351

>  <Genealogy>  (82) 
NC(=O)c1cc2ccc(C(F)F)cc2n1C(=O)COCCOCCO (3D coordinates assigned)
NC(=O)c1cc2ccc(C(F)F)cc2n1C(=O)COCCOCCO (optimized conformer: 81.95765603417351 kcal/mol)

>  <smiles>  (82) 
NC(=O)c1cc2ccc(C(F)F)cc2n1C(=O)COCCOCCO

>  <score_type>  (82) 
oracle

>  <origin>  (82) 
adg

>  <m_score__min__energy>  (82) 
-5.1100000000000003

>  <m_primary>  (82) 
energy

$$$$
85:0
     RDKit          3D

 43 44  0  0  0  0  0  0  0  0999 V2000
  143.8640  153.2820  138.0740 N   0  0  0  0  0  0  0  0  0  0  0  0
  142.6450  153.8920  138.4920 C   0  0  0  0  0  0  0  0  0  0  0  0
  142.0770  153.4830  139.5390 O   0  0  0  0  0  0  0  0  0  0  0  0
  142.0510  154.9790  137.6850 C   0  0  0  0  0  0  0  0  0  0  0  0
  141.3280  156.0410  138.2270 C   0  0  0  0  0  0  0  0  0  0  0  0
  140.9970  156.8410  137.1570 C   0  0  0  0  0  0  0  0  0  0  0  0
  140.2570  158.0190  137.1130 C   0  0  0  0  0  0  0  0  0  0  0  0
  140.0410  158.6140  135.8580 C   0  0  0  0  0  0  0  0  0  0  0  0
  140.5650  158.0270  134.6800 C   0  0  0  0  0  0  0  0  0  0  0  0
  140.2970  158.6550  133.3400 C   0  0  0  0  0  0  0  0  0  0  0  0
  139.0310  158.1130  132.7490 C   0  0  0  0  0  0  0  0  0  0  0  0
  138.2290  157.5150  133.4480 O   0  0  0  0  0  0  0  0  0  0  0  0
  141.2960  156.8220  134.7630 C   0  0  0  0  0  0  0  0  0  0  0  0
  141.5120  156.2620  136.0260 C   0  0  0  0  0  0  0  0  0  0  0  0
  142.1650  155.1210  136.3350 N   0  0  0  0  0  0  0  0  0  0  0  0
  142.7780  154.2100  135.4080 C   0  0  0  0  0  0  0  0  0  0  0  0
  142.1010  153.2600  134.9310 O   0  0  0  0  0  0  0  0  0  0  0  0
  144.1880  154.3780  135.0090 C   0  0  0  0  0  0  0  0  0  0  0  0
  144.4970  154.3180  133.7880 O   0  0  0  0  0  0  0  0  0  0  0  0
  145.2050  154.6080  135.9970 N   0  0  0  0  0  0  0  0  0  0  0  0
  146.6290  154.6150  135.6660 C   0  0  0  0  0  0  0  0  0  0  0  0
  147.4060  153.7610  136.6230 C   0  0  0  0  0  0  0  0  0  0  0  0
  148.6640  153.8230  136.6250 O   0  0  0  0  0  0  0  0  0  0  0  0
  146.7260  152.8480  137.4930 N   0  0  0  0  0  0  0  0  0  0  0  0
  147.3900  152.0670  138.5300 C   0  0  0  0  0  0  0  0  0  0  0  0
  147.1980  152.7220  139.8980 C   0  0  0  0  0  0  0  0  0  0  0  0
  146.2340  153.7370  139.8170 O   0  0  0  0  0  0  0  0  0  0  0  0
  144.7780  153.7720  138.1930 H   0  0  0  0  0  0  0  0  0  0  0  0
  141.0757  156.2047  139.2851 H   0  0  0  0  0  0  0  0  0  0  0  0
  139.8538  158.4702  138.0316 H   0  0  0  0  0  0  0  0  0  0  0  0
  139.4591  159.5450  135.7899 H   0  0  0  0  0  0  0  0  0  0  0  0
  140.2015  159.7439  133.4633 H   0  0  0  0  0  0  0  0  0  0  0  0
  141.1330  158.4212  132.6644 H   0  0  0  0  0  0  0  0  0  0  0  0
  138.8233  158.2551  131.6782 H   0  0  0  0  0  0  0  0  0  0  0  0
  141.6860  156.3357  133.8566 H   0  0  0  0  0  0  0  0  0  0  0  0
  144.9370  154.6910  137.0030 H   0  0  0  0  0  0  0  0  0  0  0  0
  146.7634  154.2262  134.6458 H   0  0  0  0  0  0  0  0  0  0  0  0
  147.0006  155.6480  135.7360 H   0  0  0  0  0  0  0  0  0  0  0  0
  146.9620  151.0539  138.5503 H   0  0  0  0  0  0  0  0  0  0  0  0
  148.4659  152.0193  138.3059 H   0  0  0  0  0  0  0  0  0  0  0  0
  146.8663  151.9625  140.6213 H   0  0  0  0  0  0  0  0  0  0  0  0
  148.1533  153.1590  140.2244 H   0  0  0  0  0  0  0  0  0  0  0  0
  145.8100  153.6560  138.9230 H   0  0  0  0  0  0  0  0  0  0  0  0
  1  2  1  0
  2  3  2  0
  2  4  1  0
  4  5  2  0
  5  6  1  0
  6  7  2  0
  7  8  1  0
  8  9  2  0
  9 10  1  0
 10 11  1  0
 11 12  2  0
  9 13  1  0
 13 14  2  0
 14 15  1  0
 15 16  1  0
 16 17  2  0
 16 18  1  0
 18 19  2  0
 18 20  1  0
 20 21  1  0
 21 22  1  0
 22 23  2  0
 22 24  1  0
 24 25  1  0
 25 26  1  0
 26 27  1  0
 15  4  1  0
 14  6  1  0
  1 28  1  0
  5 29  1  0
  7 30  1  0
  8 31  1  0
 10 32  1  0
 10 33  1  0
 11 34  1  0
 13 35  1  0
 20 36  1  0
 21 37  1  0
 21 38  1  0
 25 39  1  0
 25 40  1  0
 26 41  1  0
 26 42  1  0
 27 43  1  0
M  CHG  2   1  -1  24  -1
M  END
>  <UniqueID>  (83) 
81

>  <SMILES>  (83) 
[NH-]C(=O)c1cc2ccc(CC=O)cc2n1C(=O)C(=O)NCC(=O)[N-]CCO

>  <Energy>  (83) 
71.46654442172614

>  <Genealogy>  (83) 
[NH-]C(=O)c1cc2ccc(CC=O)cc2n1C(=O)C(=O)NCC(=O)[N-]CCO (protonated)
[NH-]C(=O)c1cc2ccc(CC=O)cc2n1C(=O)C(=O)NCC(=O)[N-]CCO (3D coordinates assigned)
[NH-]C(=O)c1cc2ccc(CC=O)cc2n1C(=O)C(=O)NCC(=O)[N-]CCO (optimized conformer: 71.46654442172614 kcal/mol)

>  <smiles>  (83) 
NC(=O)c1cc2ccc(CC=O)cc2n1C(=O)C(=O)NCC(=O)NCCO

>  <score_type>  (83) 
oracle

>  <origin>  (83) 
adg

>  <m_score__min__energy>  (83) 
-6.4400000000000004

>  <m_primary>  (83) 
energy

$$$$
86:0
     RDKit          3D

 36 37  0  0  0  0  0  0  0  0999 V2000
  145.4310  160.0450  133.7420 C   0  0  0  0  0  0  0  0  0  0  0  0
  146.1740  159.1210  133.5250 C   0  0  0  0  0  0  0  0  0  0  0  0
  147.0620  158.0180  133.2640 C   0  0  0  0  0  0  0  0  0  0  0  0
  148.3260  158.2540  132.6740 C   0  0  0  0  0  0  0  0  0  0  0  0
  149.1960  157.1850  132.4050 C   0  0  0  0  0  0  0  0  0  0  0  0
  148.7760  155.9010  132.7440 C   0  0  0  0  0  0  0  0  0  0  0  0
  149.4030  154.6860  132.5700 C   0  0  0  0  0  0  0  0  0  0  0  0
  148.5150  153.7370  133.0740 C   0  0  0  0  0  0  0  0  0  0  0  0
  148.8010  152.2880  133.1250 C   0  0  0  0  0  0  0  0  0  0  0  0
  147.8500  151.3570  132.6130 N   0  0  0  0  0  0  0  0  0  0  0  0
  149.8870  151.8620  133.6000 O   0  0  0  0  0  0  0  0  0  0  0  0
  147.3880  154.3410  133.5440 N   0  0  0  0  0  0  0  0  0  0  0  0
  146.2180  153.7110  134.0880 C   0  0  0  0  0  0  0  0  0  0  0  0
  145.5030  152.9800  133.3500 O   0  0  0  0  0  0  0  0  0  0  0  0
  145.8470  153.9010  135.4980 C   0  0  0  0  0  0  0  0  0  0  0  0
  144.8100  154.5540  135.7950 O   0  0  0  0  0  0  0  0  0  0  0  0
  146.6720  153.3560  136.5310 N   0  0  0  0  0  0  0  0  0  0  0  0
  148.0600  153.7540  136.7250 C   0  0  0  0  0  0  0  0  0  0  0  0
  148.8710  152.5680  137.2300 C   0  0  0  0  0  0  0  0  0  0  0  0
  149.7880  153.0180  138.2050 O   0  0  0  0  0  0  0  0  0  0  0  0
  149.4830  154.3500  138.5530 C   0  0  0  0  0  0  0  0  0  0  0  0
  147.5590  155.6630  133.3310 C   0  0  0  0  0  0  0  0  0  0  0  0
  146.6650  156.7070  133.5930 C   0  0  0  0  0  0  0  0  0  0  0  0
  144.7530  160.8882  133.9400 H   0  0  0  0  0  0  0  0  0  0  0  0
  148.6293  159.2815  132.4244 H   0  0  0  0  0  0  0  0  0  0  0  0
  150.1785  157.3563  131.9410 H   0  0  0  0  0  0  0  0  0  0  0  0
  150.3935  154.5039  132.1275 H   0  0  0  0  0  0  0  0  0  0  0  0
  146.8740  151.3280  132.9830 H   0  0  0  0  0  0  0  0  0  0  0  0
  148.4775  154.1011  135.7683 H   0  0  0  0  0  0  0  0  0  0  0  0
  148.1048  154.5663  137.4654 H   0  0  0  0  0  0  0  0  0  0  0  0
  148.1957  151.8226  137.6754 H   0  0  0  0  0  0  0  0  0  0  0  0
  149.4159  152.1077  136.3926 H   0  0  0  0  0  0  0  0  0  0  0  0
  149.4608  154.4469  139.6485 H   0  0  0  0  0  0  0  0  0  0  0  0
  150.2506  155.0216  138.1410 H   0  0  0  0  0  0  0  0  0  0  0  0
  148.4996  154.6206  138.1410 H   0  0  0  0  0  0  0  0  0  0  0  0
  145.6807  156.5098  134.0428 H   0  0  0  0  0  0  0  0  0  0  0  0
  1  2  3  0
  2  3  1  0
  3  4  2  0
  4  5  1  0
  5  6  2  0
  6  7  1  0
  7  8  2  0
  8  9  1  0
  9 10  1  0
  9 11  2  0
  8 12  1  0
 12 13  1  0
 13 14  2  0
 13 15  1  0
 15 16  2  0
 15 17  1  0
 17 18  1  0
 18 19  1  0
 19 20  1  0
 20 21  1  0
 12 22  1  0
 22 23  2  0
 23  3  1  0
 22  6  1  0
  1 24  1  0
  4 25  1  0
  5 26  1  0
  7 27  1  0
 10 28  1  0
 18 29  1  0
 18 30  1  0
 19 31  1  0
 19 32  1  0
 21 33  1  0
 21 34  1  0
 21 35  1  0
 23 36  1  0
M  CHG  2  10  -1  17  -1
M  END
>  <UniqueID>  (84) 
82

>  <SMILES>  (84) 
C#Cc1ccc2cc(C([NH-])=O)n(C(=O)C(=O)[N-]CCOC)c2c1

>  <Energy>  (84) 
69.00332700218856

>  <Genealogy>  (84) 
C#Cc1ccc2cc(C([NH-])=O)n(C(=O)C(=O)[N-]CCOC)c2c1 (protonated)
C#Cc1ccc2cc(C([NH-])=O)n(C(=O)C(=O)[N-]CCOC)c2c1 (3D coordinates assigned)
C#Cc1ccc2cc(C([NH-])=O)n(C(=O)C(=O)[N-]CCOC)c2c1 (optimized conformer: 69.00332700218856 kcal/mol)

>  <smiles>  (84) 
C#Cc1ccc2cc(C(N)=O)n(C(=O)C(=O)NCCOC)c2c1

>  <score_type>  (84) 
oracle

>  <origin>  (84) 
adg

>  <m_score__min__energy>  (84) 
-6.6200000000000001

>  <m_primary>  (84) 
energy

$$$$
87:0
     RDKit          3D

 33 35  0  0  0  0  0  0  0  0999 V2000
  143.3760  161.1330  133.6960 N   0  0  0  0  0  0  0  0  0  0  0  0
  144.7770  161.2180  133.9630 C   0  0  0  0  0  0  0  0  0  0  0  0
  145.2350  162.2590  134.5040 O   0  0  0  0  0  0  0  0  0  0  0  0
  145.6880  160.1190  133.5760 C   0  0  0  0  0  0  0  0  0  0  0  0
  147.0500  160.2880  133.3340 C   0  0  0  0  0  0  0  0  0  0  0  0
  147.5400  159.0230  133.1070 C   0  0  0  0  0  0  0  0  0  0  0  0
  148.8320  158.6060  132.8080 C   0  0  0  0  0  0  0  0  0  0  0  0
  149.0520  157.2350  132.5950 C   0  0  0  0  0  0  0  0  0  0  0  0
  147.9780  156.3070  132.6730 C   0  0  0  0  0  0  0  0  0  0  0  0
  148.1760  154.8980  132.4410 N   0  0  0  0  0  0  0  0  0  0  0  0
  148.4870  153.9230  133.4860 C   0  0  0  0  0  0  0  0  0  0  0  0
  149.0750  152.6850  132.8880 C   0  0  0  0  0  0  0  0  0  0  0  0
  149.2690  152.5140  131.5630 N   0  0  0  0  0  0  0  0  0  0  0  0
  149.8300  151.3070  131.2850 C   0  0  0  0  0  0  0  0  0  0  0  0
  150.0920  150.5090  132.3920 C   0  0  0  0  0  0  0  0  0  0  0  0
  149.6020  151.3490  133.7630 S   0  0  0  0  0  0  0  0  0  0  0  0
  146.6820  156.7730  132.9840 C   0  0  0  0  0  0  0  0  0  0  0  0
  146.4960  158.1430  133.2090 C   0  0  0  0  0  0  0  0  0  0  0  0
  145.3490  158.8010  133.4980 N   0  0  0  0  0  0  0  0  0  0  0  0
  144.0360  158.2270  133.6140 C   0  0  0  0  0  0  0  0  0  0  0  0
  143.2460  158.2370  132.6340 O   0  0  0  0  0  0  0  0  0  0  0  0
  143.6170  157.6710  134.8170 O   0  0  0  0  0  0  0  0  0  0  0  0
  142.9510  160.2660  133.2970 H   0  0  0  0  0  0  0  0  0  0  0  0
  142.7470  161.9300  133.9370 H   0  0  0  0  0  0  0  0  0  0  0  0
  147.6136  161.2326  133.3262 H   0  0  0  0  0  0  0  0  0  0  0  0
  149.6584  159.3289  132.7401 H   0  0  0  0  0  0  0  0  0  0  0  0
  150.0660  156.8758  132.3654 H   0  0  0  0  0  0  0  0  0  0  0  0
  148.1170  154.5420  131.4600 H   0  0  0  0  0  0  0  0  0  0  0  0
  149.2091  154.3637  134.1891 H   0  0  0  0  0  0  0  0  0  0  0  0
  147.5587  153.6576  134.0130 H   0  0  0  0  0  0  0  0  0  0  0  0
  150.0598  150.9856  130.2584 H   0  0  0  0  0  0  0  0  0  0  0  0
  150.5408  149.5049  132.3742 H   0  0  0  0  0  0  0  0  0  0  0  0
  145.8351  156.0740  133.0483 H   0  0  0  0  0  0  0  0  0  0  0  0
  1  2  1  0
  2  3  2  0
  2  4  1  0
  4  5  2  0
  5  6  1  0
  6  7  2  0
  7  8  1  0
  8  9  2  0
  9 10  1  0
 10 11  1  0
 11 12  1  0
 12 13  2  0
 13 14  1  0
 14 15  2  0
 15 16  1  0
  9 17  1  0
 17 18  2  0
 18 19  1  0
 19 20  1  0
 20 21  2  0
 20 22  1  0
 19  4  1  0
 18  6  1  0
 16 12  1  0
  1 23  1  0
  1 24  1  0
  5 25  1  0
  7 26  1  0
  8 27  1  0
 10 28  1  0
 11 29  1  0
 11 30  1  0
 14 31  1  0
 15 32  1  0
 17 33  1  0
M  CHG  1  22  -1
M  END
>  <UniqueID>  (85) 
83

>  <SMILES>  (85) 
NC(=O)c1cc2ccc(NCc3nccs3)cc2n1C(=O)[O-]

>  <Energy>  (85) 
102.67432709066674

>  <Genealogy>  (85) 
NC(=O)c1cc2ccc(NCc3nccs3)cc2n1C(=O)[O-] (protonated)
NC(=O)c1cc2ccc(NCc3nccs3)cc2n1C(=O)[O-] (3D coordinates assigned)
NC(=O)c1cc2ccc(NCc3nccs3)cc2n1C(=O)[O-] (optimized conformer: 102.67432709066674 kcal/mol)

>  <smiles>  (85) 
NC(=O)c1cc2ccc(NCc3nccs3)cc2n1C(=O)O

>  <score_type>  (85) 
oracle

>  <origin>  (85) 
adg

>  <m_score__min__energy>  (85) 
-7.3700000000000001

>  <m_primary>  (85) 
energy

$$$$
88:0
     RDKit          3D

 50 51  0  0  0  0  0  0  0  0999 V2000
  149.3910  154.0970  132.6000 C   0  0  0  0  0  0  0  0  0  0  0  0
  148.0340  154.5800  132.8850 N   0  0  0  0  0  0  0  0  0  0  0  0
  146.9540  153.6000  133.0530 C   0  0  0  0  0  0  0  0  0  0  0  0
  147.7650  156.0020  132.9990 C   0  0  0  0  0  0  0  0  0  0  0  0
  148.8220  156.9510  132.9110 C   0  0  0  0  0  0  0  0  0  0  0  0
  148.5740  158.3280  133.0330 C   0  0  0  0  0  0  0  0  0  0  0  0
  147.2630  158.7400  133.2330 C   0  0  0  0  0  0  0  0  0  0  0  0
  146.7500  160.0050  133.4120 C   0  0  0  0  0  0  0  0  0  0  0  0
  145.3790  159.8260  133.5830 C   0  0  0  0  0  0  0  0  0  0  0  0
  144.4250  160.9450  133.7270 C   0  0  0  0  0  0  0  0  0  0  0  0
  143.0570  160.7940  133.3530 N   0  0  0  0  0  0  0  0  0  0  0  0
  144.8310  162.0630  134.1400 O   0  0  0  0  0  0  0  0  0  0  0  0
  145.0580  158.5030  133.5190 N   0  0  0  0  0  0  0  0  0  0  0  0
  143.7740  157.9010  133.7420 C   0  0  0  0  0  0  0  0  0  0  0  0
  142.9330  158.4720  134.4890 O   0  0  0  0  0  0  0  0  0  0  0  0
  143.4550  156.6950  133.1090 O   0  0  0  0  0  0  0  0  0  0  0  0
  142.9380  155.5690  133.8100 C   0  0  0  0  0  0  0  0  0  0  0  0
  141.7140  155.1530  133.2130 O   0  0  0  0  0  0  0  0  0  0  0  0
  140.5800  155.9680  133.1670 C   0  0  0  0  0  0  0  0  0  0  0  0
  139.4330  155.4650  133.3130 O   0  0  0  0  0  0  0  0  0  0  0  0
  140.7460  157.3790  132.9540 N   0  0  0  0  0  0  0  0  0  0  0  0
  139.6500  158.3660  132.8890 C   0  0  0  0  0  0  0  0  0  0  0  0
  140.2220  159.7950  132.8130 C   0  0  0  0  0  0  0  0  0  0  0  0
  138.8160  158.1050  131.6180 C   0  0  0  0  0  0  0  0  0  0  0  0
  138.7290  158.2210  134.1170 C   0  0  0  0  0  0  0  0  0  0  0  0
  146.2230  157.8520  133.3040 C   0  0  0  0  0  0  0  0  0  0  0  0
  146.4420  156.4730  133.2050 C   0  0  0  0  0  0  0  0  0  0  0  0
  149.9195  153.9089  133.5462 H   0  0  0  0  0  0  0  0  0  0  0  0
  149.3339  153.1640  132.0202 H   0  0  0  0  0  0  0  0  0  0  0  0
  149.9362  154.8563  132.0202 H   0  0  0  0  0  0  0  0  0  0  0  0
  146.7721  153.4350  134.1252 H   0  0  0  0  0  0  0  0  0  0  0  0
  146.0367  153.9805  132.5798 H   0  0  0  0  0  0  0  0  0  0  0  0
  147.2438  152.6502  132.5798 H   0  0  0  0  0  0  0  0  0  0  0  0
  149.8511  156.5999  132.7445 H   0  0  0  0  0  0  0  0  0  0  0  0
  149.3941  159.0586  132.9719 H   0  0  0  0  0  0  0  0  0  0  0  0
  147.3046  160.9549  133.4186 H   0  0  0  0  0  0  0  0  0  0  0  0
  142.7270  159.9370  132.8580 H   0  0  0  0  0  0  0  0  0  0  0  0
  143.6653  154.7449  133.7654 H   0  0  0  0  0  0  0  0  0  0  0  0
  142.7565  155.8448  134.8593 H   0  0  0  0  0  0  0  0  0  0  0  0
  141.7310  157.7110  132.8430 H   0  0  0  0  0  0  0  0  0  0  0  0
  140.3771  160.1825  133.8307 H   0  0  0  0  0  0  0  0  0  0  0  0
  141.1824  159.7775  132.2770 H   0  0  0  0  0  0  0  0  0  0  0  0
  139.5148  160.4450  132.2770 H   0  0  0  0  0  0  0  0  0  0  0  0
  137.8022  157.7877  131.9034 H   0  0  0  0  0  0  0  0  0  0  0  0
  138.7573  159.0277  131.0221 H   0  0  0  0  0  0  0  0  0  0  0  0
  139.2938  157.3134  131.0221 H   0  0  0  0  0  0  0  0  0  0  0  0
  139.3259  158.3150  135.0362 H   0  0  0  0  0  0  0  0  0  0  0  0
  137.9623  159.0095  134.0955 H   0  0  0  0  0  0  0  0  0  0  0  0
  138.2417  157.2351  134.0955 H   0  0  0  0  0  0  0  0  0  0  0  0
  145.6029  155.7663  133.2855 H   0  0  0  0  0  0  0  0  0  0  0  0
  1  2  1  0
  2  3  1  0
  2  4  1  0
  4  5  2  0
  5  6  1  0
  6  7  2  0
  7  8  1  0
  8  9  2  0
  9 10  1  0
 10 11  1  0
 10 12  2  0
  9 13  1  0
 13 14  1  0
 14 15  2  0
 14 16  1  0
 16 17  1  0
 17 18  1  0
 18 19  1  0
 19 20  2  0
 19 21  1  0
 21 22  1  0
 22 23  1  0
 22 24  1  0
 22 25  1  0
 13 26  1  0
 26 27  2  0
 27  4  1  0
 26  7  1  0
  1 28  1  0
  1 29  1  0
  1 30  1  0
  3 31  1  0
  3 32  1  0
  3 33  1  0
  5 34  1  0
  6 35  1  0
  8 36  1  0
 11 37  1  0
 17 38  1  0
 17 39  1  0
 21 40  1  0
 23 41  1  0
 23 42  1  0
 23 43  1  0
 24 44  1  0
 24 45  1  0
 24 46  1  0
 25 47  1  0
 25 48  1  0
 25 49  1  0
 27 50  1  0
M  CHG  1  11  -1
M  END
>  <UniqueID>  (86) 
84

>  <SMILES>  (86) 
CN(C)c1ccc2cc(C([NH-])=O)n(C(=O)OCOC(=O)NC(C)(C)C)c2c1

>  <Energy>  (86) 
81.91750026478493

>  <Genealogy>  (86) 
CN(C)c1ccc2cc(C([NH-])=O)n(C(=O)OCOC(=O)NC(C)(C)C)c2c1 (protonated)
CN(C)c1ccc2cc(C([NH-])=O)n(C(=O)OCOC(=O)NC(C)(C)C)c2c1 (3D coordinates assigned)
CN(C)c1ccc2cc(C([NH-])=O)n(C(=O)OCOC(=O)NC(C)(C)C)c2c1 (optimized conformer: 81.91750026478493 kcal/mol)

>  <smiles>  (86) 
CN(C)c1ccc2cc(C(N)=O)n(C(=O)OCOC(=O)NC(C)(C)C)c2c1

>  <score_type>  (86) 
oracle

>  <origin>  (86) 
adg

>  <m_score__min__energy>  (86) 
-6.6600000000000001

>  <m_primary>  (86) 
energy

$$$$
89:0
     RDKit          3D

 48 49  0  0  0  0  0  0  0  0999 V2000
  148.8680  159.1280  129.8950 C   0  0  0  0  0  0  0  0  0  0  0  0
  148.6770  160.0650  131.1020 C   0  0  0  0  0  0  0  0  0  0  0  0
  149.5220  159.5450  132.2740 C   0  0  0  0  0  0  0  0  0  0  0  0
  149.1290  161.4970  130.7580 C   0  0  0  0  0  0  0  0  0  0  0  0
  147.3080  160.0590  131.5340 O   0  0  0  0  0  0  0  0  0  0  0  0
  146.8550  160.0850  132.8610 C   0  0  0  0  0  0  0  0  0  0  0  0
  147.3490  160.8880  133.6980 O   0  0  0  0  0  0  0  0  0  0  0  0
  145.8150  159.1830  133.2700 N   0  0  0  0  0  0  0  0  0  0  0  0
  144.5620  159.5000  133.7010 C   0  0  0  0  0  0  0  0  0  0  0  0
  143.9570  160.8470  133.6860 C   0  0  0  0  0  0  0  0  0  0  0  0
  144.7660  162.0230  133.7300 N   0  0  0  0  0  0  0  0  0  0  0  0
  142.7070  160.9630  133.5780 O   0  0  0  0  0  0  0  0  0  0  0  0
  143.8840  158.3600  134.1230 C   0  0  0  0  0  0  0  0  0  0  0  0
  144.7640  157.3210  133.9230 C   0  0  0  0  0  0  0  0  0  0  0  0
  144.6150  155.9630  134.1810 C   0  0  0  0  0  0  0  0  0  0  0  0
  145.7040  155.1160  133.9110 C   0  0  0  0  0  0  0  0  0  0  0  0
  146.9250  155.6400  133.4040 C   0  0  0  0  0  0  0  0  0  0  0  0
  148.0610  154.7970  133.1240 N   0  0  0  0  0  0  0  0  0  0  0  0
  148.0190  153.3420  132.9710 C   0  0  0  0  0  0  0  0  0  0  0  0
  149.1880  152.8480  132.1010 C   0  0  1  0  0  0  0  0  0  0  0  0
  150.2880  153.7100  132.2370 O   0  0  0  0  0  0  0  0  0  0  0  0
  149.5940  151.4140  132.4810 C   0  0  0  0  0  0  0  0  0  0  0  0
  150.9890  151.2880  132.5650 O   0  0  0  0  0  0  0  0  0  0  0  0
  147.0290  157.0260  133.1520 C   0  0  0  0  0  0  0  0  0  0  0  0
  145.9220  157.8420  133.4090 C   0  0  0  0  0  0  0  0  0  0  0  0
  149.0758  158.1084  130.2516 H   0  0  0  0  0  0  0  0  0  0  0  0
  147.9522  159.1238  129.2856 H   0  0  0  0  0  0  0  0  0  0  0  0
  149.7123  159.4825  129.2856 H   0  0  0  0  0  0  0  0  0  0  0  0
  149.0497  159.8357  133.2239 H   0  0  0  0  0  0  0  0  0  0  0  0
  149.5901  158.4485  132.2188 H   0  0  0  0  0  0  0  0  0  0  0  0
  150.5316  159.9783  132.2188 H   0  0  0  0  0  0  0  0  0  0  0  0
  149.3063  162.0587  131.6870 H   0  0  0  0  0  0  0  0  0  0  0  0
  150.0582  161.4571  130.1707 H   0  0  0  0  0  0  0  0  0  0  0  0
  148.3452  161.9977  130.1707 H   0  0  0  0  0  0  0  0  0  0  0  0
  145.8050  161.9680  133.6440 H   0  0  0  0  0  0  0  0  0  0  0  0
  144.3190  162.9660  133.7620 H   0  0  0  0  0  0  0  0  0  0  0  0
  142.8634  158.3020  134.5293 H   0  0  0  0  0  0  0  0  0  0  0  0
  143.6730  155.5632  134.5844 H   0  0  0  0  0  0  0  0  0  0  0  0
  145.6106  154.0354  134.0940 H   0  0  0  0  0  0  0  0  0  0  0  0
  148.9990  155.2510  133.0330 H   0  0  0  0  0  0  0  0  0  0  0  0
  148.0857  152.8733  133.9639 H   0  0  0  0  0  0  0  0  0  0  0  0
  147.0741  153.0672  132.4794 H   0  0  0  0  0  0  0  0  0  0  0  0
  148.8563  152.8450  131.0522 H   0  0  0  0  0  0  0  0  0  0  0  0
  151.0770  153.2290  131.8720 H   0  0  0  0  0  0  0  0  0  0  0  0
  149.1514  151.1620  133.4560 H   0  0  0  0  0  0  0  0  0  0  0  0
  149.2283  150.7298  131.7012 H   0  0  0  0  0  0  0  0  0  0  0  0
  151.3710  151.8620  131.8500 H   0  0  0  0  0  0  0  0  0  0  0  0
  147.9630  157.4558  132.7609 H   0  0  0  0  0  0  0  0  0  0  0  0
  1  2  1  0
  2  3  1  0
  2  4  1  0
  2  5  1  0
  5  6  1  0
  6  7  2  0
  6  8  1  0
  8  9  1  0
  9 10  1  0
 10 11  1  0
 10 12  2  0
  9 13  2  0
 13 14  1  0
 14 15  2  0
 15 16  1  0
 16 17  2  0
 17 18  1  0
 18 19  1  0
 19 20  1  0
 20 21  1  0
 20 22  1  0
 22 23  1  0
 17 24  1  0
 24 25  2  0
 25  8  1  0
 25 14  1  0
  1 26  1  0
  1 27  1  0
  1 28  1  0
  3 29  1  0
  3 30  1  0
  3 31  1  0
  4 32  1  0
  4 33  1  0
  4 34  1  0
 11 35  1  0
 11 36  1  0
 13 37  1  0
 15 38  1  0
 16 39  1  0
 18 40  1  0
 19 41  1  0
 19 42  1  0
 20 43  1  6
 21 44  1  0
 22 45  1  0
 22 46  1  0
 23 47  1  0
 24 48  1  0
M  END
>  <UniqueID>  (87) 
85

>  <SMILES>  (87) 
CC(C)(C)OC(=O)n1c(C(N)=O)cc2ccc(NC[C@@H](O)CO)cc21

>  <Energy>  (87) 
79.50314920480425

>  <Genealogy>  (87) 
CC(C)(C)OC(=O)n1c(C(N)=O)cc2ccc(NC[C@@H](O)CO)cc21 (chirality)
CC(C)(C)OC(=O)n1c(C(N)=O)cc2ccc(NC[C@@H](O)CO)cc21 (3D coordinates assigned)
CC(C)(C)OC(=O)n1c(C(N)=O)cc2ccc(NC[C@@H](O)CO)cc21 (optimized conformer: 79.50314920480425 kcal/mol)

>  <smiles>  (87) 
CC(C)(C)OC(=O)n1c(C(N)=O)cc2ccc(NCC(O)CO)cc21

>  <score_type>  (87) 
oracle

>  <origin>  (87) 
adg

>  <m_score__min__energy>  (87) 
-7.7800000000000002

>  <m_primary>  (87) 
energy

$$$$
90:0
     RDKit          3D

 37 38  0  0  0  0  0  0  0  0999 V2000
  149.5890  160.0480  131.3520 C   0  0  0  0  0  0  0  0  0  0  0  0
  149.6000  158.6120  131.8660 C   0  0  0  0  0  0  0  0  0  0  0  0
  148.8550  158.5060  133.1220 N   0  0  0  0  0  0  0  0  0  0  0  0
  147.4490  158.7820  133.2700 C   0  0  0  0  0  0  0  0  0  0  0  0
  146.9430  160.1120  133.3030 C   0  0  0  0  0  0  0  0  0  0  0  0
  145.5670  160.3540  133.4580 C   0  0  0  0  0  0  0  0  0  0  0  0
  144.7200  159.2570  133.5780 C   0  0  0  0  0  0  0  0  0  0  0  0
  143.3540  159.2010  133.7490 C   0  0  0  0  0  0  0  0  0  0  0  0
  143.0450  157.8430  133.8130 C   0  0  0  0  0  0  0  0  0  0  0  0
  141.6700  157.3160  133.9410 C   0  0  0  0  0  0  0  0  0  0  0  0
  141.2530  156.1660  133.2090 N   0  0  0  0  0  0  0  0  0  0  0  0
  140.8450  157.8970  134.6950 O   0  0  0  0  0  0  0  0  0  0  0  0
  144.1770  157.0950  133.6950 N   0  0  0  0  0  0  0  0  0  0  0  0
  144.3010  155.6670  133.7420 C   0  0  0  0  0  0  0  0  0  0  0  0
  144.0380  154.9950  132.7080 O   0  0  0  0  0  0  0  0  0  0  0  0
  144.7510  155.0090  134.9390 N   0  0  0  0  0  0  0  0  0  0  0  0
  143.8240  154.7870  136.0500 C   0  0  0  0  0  0  0  0  0  0  0  0
  146.4480  154.5570  135.1020 P   0  0  0  0  0  0  0  0  0  0  0  0
  146.9450  153.9970  133.7890 O   0  0  0  0  0  0  0  0  0  0  0  0
  146.6000  153.3790  136.3060 O   0  0  0  0  0  0  0  0  0  0  0  0
  147.3870  155.8980  135.5250 O   0  0  0  0  0  0  0  0  0  0  0  0
  145.1890  157.9720  133.5470 C   0  0  0  0  0  0  0  0  0  0  0  0
  146.5520  157.6980  133.4010 C   0  0  0  0  0  0  0  0  0  0  0  0
  149.5837  160.7427  132.2049 H   0  0  0  0  0  0  0  0  0  0  0  0
  150.4858  160.2254  130.7402 H   0  0  0  0  0  0  0  0  0  0  0  0
  148.6896  160.2116  130.7402 H   0  0  0  0  0  0  0  0  0  0  0  0
  149.1362  157.9560  131.1146 H   0  0  0  0  0  0  0  0  0  0  0  0
  150.6420  158.3089  132.0463 H   0  0  0  0  0  0  0  0  0  0  0  0
  149.3960  158.2170  133.9700 H   0  0  0  0  0  0  0  0  0  0  0  0
  147.6367  160.9602  133.2061 H   0  0  0  0  0  0  0  0  0  0  0  0
  145.1718  161.3802  133.4836 H   0  0  0  0  0  0  0  0  0  0  0  0
  142.6556  160.0479  133.8199 H   0  0  0  0  0  0  0  0  0  0  0  0
  141.9260  155.6340  132.6140 H   0  0  0  0  0  0  0  0  0  0  0  0
  144.3573  154.9147  137.0036 H   0  0  0  0  0  0  0  0  0  0  0  0
  142.9999  155.5132  135.9906 H   0  0  0  0  0  0  0  0  0  0  0  0
  143.4183  153.7663  135.9906 H   0  0  0  0  0  0  0  0  0  0  0  0
  146.9184  156.6609  133.3884 H   0  0  0  0  0  0  0  0  0  0  0  0
  1  2  1  0
  2  3  1  0
  3  4  1  0
  4  5  2  0
  5  6  1  0
  6  7  2  0
  7  8  1  0
  8  9  2  0
  9 10  1  0
 10 11  1  0
 10 12  2  0
  9 13  1  0
 13 14  1  0
 14 15  2  0
 14 16  1  0
 16 17  1  0
 16 18  1  0
 18 19  2  0
 18 20  1  0
 18 21  1  0
 13 22  1  0
 22 23  2  0
 23  4  1  0
 22  7  1  0
  1 24  1  0
  1 25  1  0
  1 26  1  0
  2 27  1  0
  2 28  1  0
  3 29  1  0
  5 30  1  0
  6 31  1  0
  8 32  1  0
 11 33  1  0
 17 34  1  0
 17 35  1  0
 17 36  1  0
 23 37  1  0
M  CHG  3  11  -1  20  -1  21  -1
M  END
>  <UniqueID>  (88) 
86

>  <SMILES>  (88) 
CCNc1ccc2cc(C([NH-])=O)n(C(=O)N(C)P(=O)([O-])[O-])c2c1

>  <Energy>  (88) 
70.08924406190873

>  <Genealogy>  (88) 
CCNc1ccc2cc(C([NH-])=O)n(C(=O)N(C)P(=O)([O-])[O-])c2c1 (protonated)
CCNc1ccc2cc(C([NH-])=O)n(C(=O)N(C)P(=O)([O-])[O-])c2c1 (3D coordinates assigned)
CCNc1ccc2cc(C([NH-])=O)n(C(=O)N(C)P(=O)([O-])[O-])c2c1 (optimized conformer: 70.08924406190873 kcal/mol)

>  <smiles>  (88) 
CCNc1ccc2cc(C(N)=O)n(C(=O)N(C)P(=O)(O)O)c2c1

>  <score_type>  (88) 
oracle

>  <origin>  (88) 
adg

>  <m_score__min__energy>  (88) 
-6.1699999999999999

>  <m_primary>  (88) 
energy

$$$$
91:0
     RDKit          3D

 37 38  0  0  0  0  0  0  0  0999 V2000
  141.3790  158.6310  137.6650 C   0  0  0  0  0  0  0  0  0  0  0  0
  140.7580  159.2870  136.5220 N   0  0  0  0  0  0  0  0  0  0  0  0
  140.0880  158.6060  135.4520 C   0  0  0  0  0  0  0  0  0  0  0  0
  139.1180  157.8510  135.7330 O   0  0  0  0  0  0  0  0  0  0  0  0
  140.4590  158.8270  134.0080 C   0  0  0  0  0  0  0  0  0  0  0  0
  141.8970  159.2490  133.8740 C   0  0  0  0  0  0  0  0  0  0  0  0
  142.2260  160.6260  133.8030 C   0  0  0  0  0  0  0  0  0  0  0  0
  143.5670  161.0390  133.7220 C   0  0  0  0  0  0  0  0  0  0  0  0
  144.5520  160.0560  133.7120 C   0  0  0  0  0  0  0  0  0  0  0  0
  145.9220  160.1800  133.6780 C   0  0  0  0  0  0  0  0  0  0  0  0
  146.4090  158.8750  133.7070 C   0  0  0  0  0  0  0  0  0  0  0  0
  147.8450  158.5420  133.6190 C   0  0  0  0  0  0  0  0  0  0  0  0
  148.3700  157.3650  134.2340 N   0  0  0  0  0  0  0  0  0  0  0  0
  148.6120  159.2790  132.9440 O   0  0  0  0  0  0  0  0  0  0  0  0
  145.3840  157.9800  133.7730 N   0  0  0  0  0  0  0  0  0  0  0  0
  145.4770  156.5540  133.9240 C   0  0  0  0  0  0  0  0  0  0  0  0
  145.3380  155.8050  132.9190 O   0  0  0  0  0  0  0  0  0  0  0  0
  145.7210  156.0020  135.1880 O   0  0  0  0  0  0  0  0  0  0  0  0
  145.6680  154.6030  135.4540 C   0  0  0  0  0  0  0  0  0  0  0  0
  147.0080  154.1060  135.8920 C   0  0  0  0  0  0  0  0  0  0  0  0
  148.0560  154.6900  135.5070 O   0  0  0  0  0  0  0  0  0  0  0  0
  147.1020  153.0110  136.7430 O   0  0  0  0  0  0  0  0  0  0  0  0
  144.2520  158.7180  133.7710 C   0  0  0  0  0  0  0  0  0  0  0  0
  142.9260  158.2800  133.8750 C   0  0  0  0  0  0  0  0  0  0  0  0
  140.9759  159.0568  138.5957 H   0  0  0  0  0  0  0  0  0  0  0  0
  141.1627  157.5530  137.6311 H   0  0  0  0  0  0  0  0  0  0  0  0
  142.4672  158.7879  137.6311 H   0  0  0  0  0  0  0  0  0  0  0  0
  140.3064  157.8908  133.4510 H   0  0  0  0  0  0  0  0  0  0  0  0
  139.8220  159.6273  133.6033 H   0  0  0  0  0  0  0  0  0  0  0  0
  141.4239  161.3787  133.8114 H   0  0  0  0  0  0  0  0  0  0  0  0
  143.8297  162.1058  133.6682 H   0  0  0  0  0  0  0  0  0  0  0  0
  146.5074  161.1104  133.6367 H   0  0  0  0  0  0  0  0  0  0  0  0
  149.3950  157.1680  134.1960 H   0  0  0  0  0  0  0  0  0  0  0  0
  147.7390  156.6430  134.6490 H   0  0  0  0  0  0  0  0  0  0  0  0
  144.9327  154.4127  136.2497 H   0  0  0  0  0  0  0  0  0  0  0  0
  145.3742  154.0753  134.5346 H   0  0  0  0  0  0  0  0  0  0  0  0
  142.6910  157.2084  133.9555 H   0  0  0  0  0  0  0  0  0  0  0  0
  1  2  1  0
  2  3  1  0
  3  4  2  0
  3  5  1  0
  5  6  1  0
  6  7  2  0
  7  8  1  0
  8  9  2  0
  9 10  1  0
 10 11  2  0
 11 12  1  0
 12 13  1  0
 12 14  2  0
 11 15  1  0
 15 16  1  0
 16 17  2  0
 16 18  1  0
 18 19  1  0
 19 20  1  0
 20 21  2  0
 20 22  1  0
 15 23  1  0
 23 24  2  0
 24  6  1  0
 23  9  1  0
  1 25  1  0
  1 26  1  0
  1 27  1  0
  5 28  1  0
  5 29  1  0
  7 30  1  0
  8 31  1  0
 10 32  1  0
 13 33  1  0
 13 34  1  0
 19 35  1  0
 19 36  1  0
 24 37  1  0
M  CHG  2   2  -1  22  -1
M  END
>  <UniqueID>  (89) 
87

>  <SMILES>  (89) 
C[N-]C(=O)Cc1ccc2cc(C(N)=O)n(C(=O)OCC(=O)[O-])c2c1

>  <Energy>  (89) 
71.63500754856146

>  <Genealogy>  (89) 
C[N-]C(=O)Cc1ccc2cc(C(N)=O)n(C(=O)OCC(=O)[O-])c2c1 (protonated)
C[N-]C(=O)Cc1ccc2cc(C(N)=O)n(C(=O)OCC(=O)[O-])c2c1 (3D coordinates assigned)
C[N-]C(=O)Cc1ccc2cc(C(N)=O)n(C(=O)OCC(=O)[O-])c2c1 (optimized conformer: 71.63500754856146 kcal/mol)

>  <smiles>  (89) 
CNC(=O)Cc1ccc2cc(C(N)=O)n(C(=O)OCC(=O)O)c2c1

>  <score_type>  (89) 
oracle

>  <origin>  (89) 
adg

>  <m_score__min__energy>  (89) 
-6.7400000000000002

>  <m_primary>  (89) 
energy

$$$$
92:0
     RDKit          3D

 40 41  0  0  0  0  0  0  0  0999 V2000
  149.2210  154.0860  132.6110 C   0  0  0  0  0  0  0  0  0  0  0  0
  148.7150  155.1780  132.6790 C   0  0  0  0  0  0  0  0  0  0  0  0
  148.1070  156.4800  132.7630 C   0  0  0  0  0  0  0  0  0  0  0  0
  148.8820  157.6400  132.5390 C   0  0  0  0  0  0  0  0  0  0  0  0
  148.3000  158.9160  132.6400 C   0  0  0  0  0  0  0  0  0  0  0  0
  146.9450  158.9910  132.9570 C   0  0  0  0  0  0  0  0  0  0  0  0
  146.1390  160.0900  133.1530 C   0  0  0  0  0  0  0  0  0  0  0  0
  144.8830  159.5750  133.4710 C   0  0  0  0  0  0  0  0  0  0  0  0
  143.6890  160.4180  133.6870 C   0  0  0  0  0  0  0  0  0  0  0  0
  142.3830  159.9310  133.3900 N   0  0  0  0  0  0  0  0  0  0  0  0
  143.8270  161.6010  134.1000 O   0  0  0  0  0  0  0  0  0  0  0  0
  144.9130  158.2120  133.4770 N   0  0  0  0  0  0  0  0  0  0  0  0
  143.8660  157.3020  133.8450 C   0  0  0  0  0  0  0  0  0  0  0  0
  143.9700  156.6180  134.9010 O   0  0  0  0  0  0  0  0  0  0  0  0
  142.7510  157.1570  133.0130 O   0  0  0  0  0  0  0  0  0  0  0  0
  141.7490  156.1610  133.2030 C   0  0  0  0  0  0  0  0  0  0  0  0
  140.4060  156.8130  133.4270 C   0  0  0  0  0  0  0  0  0  0  0  0
  139.4060  156.1070  133.4350 O   0  0  0  0  0  0  0  0  0  0  0  0
  140.2940  158.2460  133.6410 N   0  0  2  0  0  0  0  0  0  0  0  0
  140.3150  158.5690  135.0790 C   0  0  0  0  0  0  0  0  0  0  0  0
  139.1160  158.8170  132.9460 C   0  0  0  0  0  0  0  0  0  0  0  0
  139.4360  159.4500  131.6180 C   0  0  0  0  0  0  0  0  0  0  0  0
  140.6010  159.3820  131.1450 O   0  0  0  0  0  0  0  0  0  0  0  0
  138.4440  160.1110  130.9040 O   0  0  0  0  0  0  0  0  0  0  0  0
  146.1800  157.8710  133.1580 C   0  0  0  0  0  0  0  0  0  0  0  0
  146.7400  156.5910  133.0790 C   0  0  0  0  0  0  0  0  0  0  0  0
  149.6827  153.0895  132.5489 H   0  0  0  0  0  0  0  0  0  0  0  0
  149.9477  157.5442  132.2839 H   0  0  0  0  0  0  0  0  0  0  0  0
  148.8953  159.8260  132.4741 H   0  0  0  0  0  0  0  0  0  0  0  0
  146.4252  161.1493  133.0752 H   0  0  0  0  0  0  0  0  0  0  0  0
  142.2270  159.2460  132.6180 H   0  0  0  0  0  0  0  0  0  0  0  0
  141.6983  155.5208  132.3099 H   0  0  0  0  0  0  0  0  0  0  0  0
  142.0064  155.5545  134.0839 H   0  0  0  0  0  0  0  0  0  0  0  0
  141.1330  158.7130  133.2260 H   0  0  0  0  0  0  0  0  0  0  0  0
  140.2546  157.6397  135.6645 H   0  0  0  0  0  0  0  0  0  0  0  0
  141.2493  159.0959  135.3228 H   0  0  0  0  0  0  0  0  0  0  0  0
  139.4568  159.2124  135.3228 H   0  0  0  0  0  0  0  0  0  0  0  0
  138.3885  158.0093  132.7778 H   0  0  0  0  0  0  0  0  0  0  0  0
  138.7211  159.6149  133.5920 H   0  0  0  0  0  0  0  0  0  0  0  0
  146.1278  155.6950  133.2591 H   0  0  0  0  0  0  0  0  0  0  0  0
  1  2  3  0
  2  3  1  0
  3  4  2  0
  4  5  1  0
  5  6  2  0
  6  7  1  0
  7  8  2  0
  8  9  1  0
  9 10  1  0
  9 11  2  0
  8 12  1  0
 12 13  1  0
 13 14  2  0
 13 15  1  0
 15 16  1  0
 16 17  1  0
 17 18  2  0
 17 19  1  0
 19 20  1  0
 19 21  1  0
 21 22  1  0
 22 23  2  0
 22 24  1  0
 12 25  1  0
 25 26  2  0
 26  3  1  0
 25  6  1  0
  1 27  1  0
  4 28  1  0
  5 29  1  0
  7 30  1  0
 10 31  1  0
 16 32  1  0
 16 33  1  0
 19 34  1  6
 20 35  1  0
 20 36  1  0
 20 37  1  0
 21 38  1  0
 21 39  1  0
 26 40  1  0
M  CHG  3  10  -1  19   1  24  -1
M  END
>  <UniqueID>  (90) 
88

>  <SMILES>  (90) 
C#Cc1ccc2cc(C([NH-])=O)n(C(=O)OCC(=O)[N@H+](C)CC(=O)[O-])c2c1

>  <Energy>  (90) 
77.30781253136169

>  <Genealogy>  (90) 
C#Cc1ccc2cc(C([NH-])=O)n(C(=O)OCC(=O)[NH+](C)CC(=O)[O-])c2c1 (protonated)
C#Cc1ccc2cc(C([NH-])=O)n(C(=O)OCC(=O)[N@H+](C)CC(=O)[O-])c2c1 (chirality)
C#Cc1ccc2cc(C([NH-])=O)n(C(=O)OCC(=O)[N@H+](C)CC(=O)[O-])c2c1 (3D coordinates assigned)
C#Cc1ccc2cc(C([NH-])=O)n(C(=O)OCC(=O)[N@H+](C)CC(=O)[O-])c2c1 (optimized conformer: 77.30781253136169 kcal/mol)

>  <smiles>  (90) 
C#Cc1ccc2cc(C(N)=O)n(C(=O)OCC(=O)N(C)CC(=O)O)c2c1

>  <score_type>  (90) 
oracle

>  <origin>  (90) 
adg

>  <m_score__min__energy>  (90) 
-5.8300000000000001

>  <m_primary>  (90) 
energy

$$$$
93:0
     RDKit          3D

 35 36  0  0  0  0  0  0  0  0999 V2000
  143.3150  160.1690  133.2020 N   0  0  0  0  0  0  0  0  0  0  0  0
  144.6250  159.9500  133.7160 C   0  0  0  0  0  0  0  0  0  0  0  0
  145.1800  160.8560  134.3940 O   0  0  0  0  0  0  0  0  0  0  0  0
  145.3160  158.6590  133.5160 C   0  0  0  0  0  0  0  0  0  0  0  0
  146.6960  158.5060  133.6270 C   0  0  0  0  0  0  0  0  0  0  0  0
  146.9270  157.1580  133.4730 C   0  0  0  0  0  0  0  0  0  0  0  0
  148.1250  156.4490  133.4880 C   0  0  0  0  0  0  0  0  0  0  0  0
  148.0690  155.0600  133.2770 C   0  0  0  0  0  0  0  0  0  0  0  0
  146.8300  154.4160  133.0490 C   0  0  0  0  0  0  0  0  0  0  0  0
  146.7890  153.0040  132.8250 N   0  0  0  0  0  0  0  0  0  0  0  0
  145.6350  155.1660  133.0390 C   0  0  0  0  0  0  0  0  0  0  0  0
  145.7170  156.5460  133.2710 C   0  0  0  0  0  0  0  0  0  0  0  0
  144.7170  157.4550  133.2900 N   0  0  0  0  0  0  0  0  0  0  0  0
  143.3270  157.1920  133.0410 C   0  0  0  0  0  0  0  0  0  0  0  0
  142.8190  157.4820  131.9230 O   0  0  0  0  0  0  0  0  0  0  0  0
  142.5490  156.5880  134.0310 O   0  0  0  0  0  0  0  0  0  0  0  0
  141.1280  156.5220  133.9690 C   0  0  0  0  0  0  0  0  0  0  0  0
  140.5280  157.9350  133.9310 C   0  0  1  0  0  0  0  0  0  0  0  0
  141.4870  158.8840  134.3200 O   0  0  0  0  0  0  0  0  0  0  0  0
  139.9810  158.2910  132.5400 C   0  0  0  0  0  0  0  0  0  0  0  0
  140.8030  159.2240  131.8880 O   0  0  0  0  0  0  0  0  0  0  0  0
  142.8240  159.4330  132.6480 H   0  0  0  0  0  0  0  0  0  0  0  0
  147.4426  159.2949  133.8008 H   0  0  0  0  0  0  0  0  0  0  0  0
  149.0844  156.9590  133.6594 H   0  0  0  0  0  0  0  0  0  0  0  0
  148.9966  154.4689  133.2893 H   0  0  0  0  0  0  0  0  0  0  0  0
  146.7850  152.6170  131.8540 H   0  0  0  0  0  0  0  0  0  0  0  0
  146.7600  152.3360  133.6260 H   0  0  0  0  0  0  0  0  0  0  0  0
  144.6652  154.6809  132.8542 H   0  0  0  0  0  0  0  0  0  0  0  0
  140.8297  155.9770  133.0613 H   0  0  0  0  0  0  0  0  0  0  0  0
  140.7556  156.0000  134.8627 H   0  0  0  0  0  0  0  0  0  0  0  0
  139.6862  157.9498  134.6389 H   0  0  0  0  0  0  0  0  0  0  0  0
  142.1910  158.8840  133.6200 H   0  0  0  0  0  0  0  0  0  0  0  0
  139.9268  157.3758  131.9321 H   0  0  0  0  0  0  0  0  0  0  0  0
  138.9834  158.7373  132.6649 H   0  0  0  0  0  0  0  0  0  0  0  0
  141.7320  159.0430  132.1840 H   0  0  0  0  0  0  0  0  0  0  0  0
  1  2  1  0
  2  3  2  0
  2  4  1  0
  4  5  2  0
  5  6  1  0
  6  7  2  0
  7  8  1  0
  8  9  2  0
  9 10  1  0
  9 11  1  0
 11 12  2  0
 12 13  1  0
 13 14  1  0
 14 15  2  0
 14 16  1  0
 16 17  1  0
 17 18  1  0
 18 19  1  0
 18 20  1  0
 20 21  1  0
 13  4  1  0
 12  6  1  0
  1 22  1  0
  5 23  1  0
  7 24  1  0
  8 25  1  0
 10 26  1  0
 10 27  1  0
 11 28  1  0
 17 29  1  0
 17 30  1  0
 18 31  1  1
 19 32  1  0
 20 33  1  0
 20 34  1  0
 21 35  1  0
M  CHG  1   1  -1
M  END
>  <UniqueID>  (91) 
89

>  <SMILES>  (91) 
[NH-]C(=O)c1cc2ccc(N)cc2n1C(=O)OC[C@@H](O)CO

>  <Energy>  (91) 
68.19587194173731

>  <Genealogy>  (91) 
[NH-]C(=O)c1cc2ccc(N)cc2n1C(=O)OCC(O)CO (protonated)
[NH-]C(=O)c1cc2ccc(N)cc2n1C(=O)OC[C@@H](O)CO (chirality)
[NH-]C(=O)c1cc2ccc(N)cc2n1C(=O)OC[C@@H](O)CO (3D coordinates assigned)
[NH-]C(=O)c1cc2ccc(N)cc2n1C(=O)OC[C@@H](O)CO (optimized conformer: 68.19587194173731 kcal/mol)

>  <smiles>  (91) 
NC(=O)c1cc2ccc(N)cc2n1C(=O)OCC(O)CO

>  <score_type>  (91) 
oracle

>  <origin>  (91) 
adg

>  <m_score__min__energy>  (91) 
-4.9100000000000001

>  <m_primary>  (91) 
energy

$$$$
94:0
     RDKit          3D

 36 37  0  0  0  0  0  0  0  0999 V2000
  147.3050  160.2820  133.0170 N   0  0  0  0  0  0  0  0  0  0  0  0
  146.3970  159.1900  133.1810 C   0  0  0  0  0  0  0  0  0  0  0  0
  145.1630  159.4280  133.2780 O   0  0  0  0  0  0  0  0  0  0  0  0
  146.8960  157.7990  133.2710 C   0  0  0  0  0  0  0  0  0  0  0  0
  146.2020  156.7630  133.8960 C   0  0  0  0  0  0  0  0  0  0  0  0
  146.9530  155.6340  133.6690 C   0  0  0  0  0  0  0  0  0  0  0  0
  146.7360  154.3200  134.0720 C   0  0  0  0  0  0  0  0  0  0  0  0
  147.6910  153.3550  133.7150 C   0  0  0  0  0  0  0  0  0  0  0  0
  148.8460  153.7110  132.9730 C   0  0  0  0  0  0  0  0  0  0  0  0
  149.8040  152.6870  132.6410 N   0  0  0  0  0  0  0  0  0  0  0  0
  149.5720  151.2490  132.7850 C   0  0  0  0  0  0  0  0  0  0  0  0
  149.9400  150.7760  134.1900 C   0  0  0  0  0  0  0  0  0  0  0  0
  149.2530  149.6150  134.4920 F   0  0  0  0  0  0  0  0  0  0  0  0
  149.6030  151.7530  135.1090 F   0  0  0  0  0  0  0  0  0  0  0  0
  149.0330  155.0620  132.5900 C   0  0  0  0  0  0  0  0  0  0  0  0
  148.0530  155.9990  132.9390 C   0  0  0  0  0  0  0  0  0  0  0  0
  148.0330  157.3260  132.6860 N   0  0  0  0  0  0  0  0  0  0  0  0
  149.0380  158.0770  131.9850 C   0  0  0  0  0  0  0  0  0  0  0  0
  150.2600  157.8450  132.1990 O   0  0  0  0  0  0  0  0  0  0  0  0
  148.6560  159.0520  131.0570 O   0  0  0  0  0  0  0  0  0  0  0  0
  149.5860  159.8690  130.3500 C   0  0  0  0  0  0  0  0  0  0  0  0
  149.2230  161.3120  130.4920 C   0  0  0  0  0  0  0  0  0  0  0  0
  148.5070  161.6940  131.4550 O   0  0  0  0  0  0  0  0  0  0  0  0
  149.6510  162.2320  129.5440 O   0  0  0  0  0  0  0  0  0  0  0  0
  148.3260  160.1220  132.8770 H   0  0  0  0  0  0  0  0  0  0  0  0
  146.9440  161.2620  132.9950 H   0  0  0  0  0  0  0  0  0  0  0  0
  145.2555  156.8341  134.4520 H   0  0  0  0  0  0  0  0  0  0  0  0
  145.8430  154.0457  134.6528 H   0  0  0  0  0  0  0  0  0  0  0  0
  147.5413  152.3074  134.0152 H   0  0  0  0  0  0  0  0  0  0  0  0
  150.7310  152.9810  132.2560 H   0  0  0  0  0  0  0  0  0  0  0  0
  148.5090  151.0353  132.5999 H   0  0  0  0  0  0  0  0  0  0  0  0
  150.2030  150.7165  132.0582 H   0  0  0  0  0  0  0  0  0  0  0  0
  151.0219  150.5817  134.2306 H   0  0  0  0  0  0  0  0  0  0  0  0
  149.9291  155.3683  132.0303 H   0  0  0  0  0  0  0  0  0  0  0  0
  150.5946  159.7069  130.7580 H   0  0  0  0  0  0  0  0  0  0  0  0
  149.5620  159.5977  129.2843 H   0  0  0  0  0  0  0  0  0  0  0  0
  1  2  1  0
  2  3  2  0
  2  4  1  0
  4  5  2  0
  5  6  1  0
  6  7  2  0
  7  8  1  0
  8  9  2  0
  9 10  1  0
 10 11  1  0
 11 12  1  0
 12 13  1  0
 12 14  1  0
  9 15  1  0
 15 16  2  0
 16 17  1  0
 17 18  1  0
 18 19  2  0
 18 20  1  0
 20 21  1  0
 21 22  1  0
 22 23  2  0
 22 24  1  0
 17  4  1  0
 16  6  1  0
  1 25  1  0
  1 26  1  0
  5 27  1  0
  7 28  1  0
  8 29  1  0
 10 30  1  0
 11 31  1  0
 11 32  1  0
 12 33  1  0
 15 34  1  0
 21 35  1  0
 21 36  1  0
M  CHG  1  24  -1
M  END
>  <UniqueID>  (92) 
90

>  <SMILES>  (92) 
NC(=O)c1cc2ccc(NCC(F)F)cc2n1C(=O)OCC(=O)[O-]

>  <Energy>  (92) 
69.51586483103928

>  <Genealogy>  (92) 
NC(=O)c1cc2ccc(NCC(F)F)cc2n1C(=O)OCC(=O)[O-] (protonated)
NC(=O)c1cc2ccc(NCC(F)F)cc2n1C(=O)OCC(=O)[O-] (3D coordinates assigned)
NC(=O)c1cc2ccc(NCC(F)F)cc2n1C(=O)OCC(=O)[O-] (optimized conformer: 69.51586483103928 kcal/mol)

>  <smiles>  (92) 
NC(=O)c1cc2ccc(NCC(F)F)cc2n1C(=O)OCC(=O)O

>  <score_type>  (92) 
oracle

>  <origin>  (92) 
adg

>  <m_score__min__energy>  (92) 
-6.3600000000000003

>  <m_primary>  (92) 
energy

$$$$
95:0
     RDKit          3D

 45 46  0  0  0  0  0  0  0  0999 V2000
  142.3650  159.2720  135.4490 C   0  0  0  0  0  0  0  0  0  0  0  0
  142.9890  159.7370  134.0660 B   0  0  0  0  0  0  0  0  0  0  0  0
  142.0500  160.1170  133.0040 O   0  0  0  0  0  0  0  0  0  0  0  0
  144.4180  160.2410  133.9530 N   0  0  0  0  0  0  0  0  0  0  0  0
  144.7400  161.6620  134.0890 C   0  0  0  0  0  0  0  0  0  0  0  0
  145.4690  159.2990  133.7080 C   0  0  0  0  0  0  0  0  0  0  0  0
  146.7580  159.7250  133.5200 C   0  0  0  0  0  0  0  0  0  0  0  0
  147.7520  158.7990  133.2840 C   0  0  0  0  0  0  0  0  0  0  0  0
  147.4290  157.4540  133.2420 C   0  0  0  0  0  0  0  0  0  0  0  0
  148.2020  156.3460  133.0320 C   0  0  0  0  0  0  0  0  0  0  0  0
  147.3940  155.2030  133.0860 C   0  0  0  0  0  0  0  0  0  0  0  0
  147.9250  153.8700  132.8990 C   0  0  0  0  0  0  0  0  0  0  0  0
  147.0170  152.7880  132.5910 N   0  0  0  0  0  0  0  0  0  0  0  0
  149.1270  153.5340  132.9770 O   0  0  0  0  0  0  0  0  0  0  0  0
  146.1430  155.6260  133.3290 N   0  0  0  0  0  0  0  0  0  0  0  0
  144.9780  154.8350  133.4690 C   0  0  0  0  0  0  0  0  0  0  0  0
  145.0680  153.6870  134.0300 O   0  0  0  0  0  0  0  0  0  0  0  0
  143.7140  155.1780  133.0520 O   0  0  0  0  0  0  0  0  0  0  0  0
  142.5690  154.7770  133.8200 C   0  0  0  0  0  0  0  0  0  0  0  0
  141.4150  154.8170  133.0340 O   0  0  0  0  0  0  0  0  0  0  0  0
  140.3870  155.7310  133.1760 C   0  0  0  0  0  0  0  0  0  0  0  0
  139.2040  155.3340  133.3620 O   0  0  0  0  0  0  0  0  0  0  0  0
  140.6980  157.2020  133.1050 C   0  0  0  0  0  0  0  0  0  0  0  0
  142.0090  157.4380  132.5350 N   0  0  0  0  0  0  0  0  0  0  0  0
  146.1460  156.9830  133.4260 C   0  0  0  0  0  0  0  0  0  0  0  0
  145.1740  157.9410  133.6590 C   0  0  0  0  0  0  0  0  0  0  0  0
  142.9456  159.7046  136.2771 H   0  0  0  0  0  0  0  0  0  0  0  0
  141.3218  159.6147  135.5143 H   0  0  0  0  0  0  0  0  0  0  0  0
  142.3951  158.1744  135.5143 H   0  0  0  0  0  0  0  0  0  0  0  0
  142.1390  159.5700  132.1860 H   0  0  0  0  0  0  0  0  0  0  0  0
  144.7994  161.9240  135.1557 H   0  0  0  0  0  0  0  0  0  0  0  0
  145.7073  161.8666  133.6068 H   0  0  0  0  0  0  0  0  0  0  0  0
  143.9554  162.2635  133.6068 H   0  0  0  0  0  0  0  0  0  0  0  0
  146.9978  160.7979  133.5571 H   0  0  0  0  0  0  0  0  0  0  0  0
  148.7910  159.1260  133.1307 H   0  0  0  0  0  0  0  0  0  0  0  0
  149.2867  156.3513  132.8495 H   0  0  0  0  0  0  0  0  0  0  0  0
  146.6430  152.2480  133.4080 H   0  0  0  0  0  0  0  0  0  0  0  0
  146.7550  152.5650  131.6110 H   0  0  0  0  0  0  0  0  0  0  0  0
  142.7210  153.7516  134.1882 H   0  0  0  0  0  0  0  0  0  0  0  0
  142.4476  155.4693  134.6661 H   0  0  0  0  0  0  0  0  0  0  0  0
  139.9412  157.6981  132.4796 H   0  0  0  0  0  0  0  0  0  0  0  0
  140.6866  157.6081  134.1272 H   0  0  0  0  0  0  0  0  0  0  0  0
  142.0310  158.2350  131.8620 H   0  0  0  0  0  0  0  0  0  0  0  0
  142.3910  156.5640  132.0890 H   0  0  0  0  0  0  0  0  0  0  0  0
  144.1337  157.6171  133.8104 H   0  0  0  0  0  0  0  0  0  0  0  0
  1  2  1  0
  2  3  1  0
  2  4  1  0
  4  5  1  0
  4  6  1  0
  6  7  2  0
  7  8  1  0
  8  9  2  0
  9 10  1  0
 10 11  2  0
 11 12  1  0
 12 13  1  0
 12 14  2  0
 11 15  1  0
 15 16  1  0
 16 17  2  0
 16 18  1  0
 18 19  1  0
 19 20  1  0
 20 21  1  0
 21 22  2  0
 21 23  1  0
 23 24  1  0
 15 25  1  0
 25 26  2  0
 26  6  1  0
 25  9  1  0
  1 27  1  0
  1 28  1  0
  1 29  1  0
  3 30  1  0
  5 31  1  0
  5 32  1  0
  5 33  1  0
  7 34  1  0
  8 35  1  0
 10 36  1  0
 13 37  1  0
 13 38  1  0
 19 39  1  0
 19 40  1  0
 23 41  1  0
 23 42  1  0
 24 43  1  0
 24 44  1  0
 26 45  1  0
M  END
>  <smiles>  (93) 
CB(O)N(C)c1ccc2cc(C(N)=O)n(C(=O)OCOC(=O)CN)c2c1

>  <score_type>  (93) 
oracle

>  <origin>  (93) 
adg

>  <m_score__min__energy>  (93) 
-6.5700000000000003

>  <m_primary>  (93) 
energy

$$$$
96:0
     RDKit          3D

 40 41  0  0  0  0  0  0  0  0999 V2000
  148.8470  161.5970  130.5860 C   0  0  0  0  0  0  0  0  0  0  0  0
  148.1470  160.5120  131.1540 O   0  0  0  0  0  0  0  0  0  0  0  0
  148.8580  159.3170  130.9130 C   0  0  0  0  0  0  0  0  0  0  0  0
  149.3580  158.7470  132.2400 C   0  0  0  0  0  0  0  0  0  0  0  0
  148.4190  158.9530  133.2800 O   0  0  0  0  0  0  0  0  0  0  0  0
  147.6620  157.7870  133.5510 C   0  0  0  0  0  0  0  0  0  0  0  0
  146.4020  158.1530  134.1090 O   0  0  0  0  0  0  0  0  0  0  0  0
  145.1840  157.7790  133.5300 C   0  0  0  0  0  0  0  0  0  0  0  0
  145.0610  156.6530  132.9730 O   0  0  0  0  0  0  0  0  0  0  0  0
  144.0650  158.6750  133.5810 N   0  0  0  0  0  0  0  0  0  0  0  0
  144.0870  160.0320  133.7000 C   0  0  0  0  0  0  0  0  0  0  0  0
  145.3080  160.8710  133.7030 C   0  0  0  0  0  0  0  0  0  0  0  0
  146.4870  160.4520  133.0130 N   0  0  0  0  0  0  0  0  0  0  0  0
  145.3250  161.9590  134.3370 O   0  0  0  0  0  0  0  0  0  0  0  0
  142.7870  160.5370  133.7370 C   0  0  0  0  0  0  0  0  0  0  0  0
  141.9650  159.4370  133.6390 C   0  0  0  0  0  0  0  0  0  0  0  0
  140.5760  159.3520  133.6380 C   0  0  0  0  0  0  0  0  0  0  0  0
  139.9950  158.0750  133.5550 C   0  0  0  0  0  0  0  0  0  0  0  0
  140.8060  156.9140  133.4880 C   0  0  0  0  0  0  0  0  0  0  0  0
  140.1660  155.5570  133.4210 C   0  0  0  0  0  0  0  0  0  0  0  0
  139.1010  155.5870  132.5410 F   0  0  0  0  0  0  0  0  0  0  0  0
  141.0920  154.6260  132.9870 F   0  0  0  0  0  0  0  0  0  0  0  0
  142.2130  157.0430  133.4960 C   0  0  0  0  0  0  0  0  0  0  0  0
  142.7620  158.3260  133.5500 C   0  0  0  0  0  0  0  0  0  0  0  0
  149.2553  162.2299  131.3877 H   0  0  0  0  0  0  0  0  0  0  0  0
  149.6705  161.2167  129.9637 H   0  0  0  0  0  0  0  0  0  0  0  0
  148.1610  162.1905  129.9637 H   0  0  0  0  0  0  0  0  0  0  0  0
  148.1943  158.5868  130.4268 H   0  0  0  0  0  0  0  0  0  0  0  0
  149.7156  159.5259  130.2566 H   0  0  0  0  0  0  0  0  0  0  0  0
  149.5304  157.6669  132.1228 H   0  0  0  0  0  0  0  0  0  0  0  0
  150.2902  159.2654  132.5090 H   0  0  0  0  0  0  0  0  0  0  0  0
  147.5004  157.2301  132.6162 H   0  0  0  0  0  0  0  0  0  0  0  0
  148.2085  157.1551  134.2666 H   0  0  0  0  0  0  0  0  0  0  0  0
  146.4970  159.5900  132.4240 H   0  0  0  0  0  0  0  0  0  0  0  0
  147.3530  161.0350  133.0550 H   0  0  0  0  0  0  0  0  0  0  0  0
  142.4833  161.5905  133.8257 H   0  0  0  0  0  0  0  0  0  0  0  0
  139.9523  160.2560  133.7002 H   0  0  0  0  0  0  0  0  0  0  0  0
  138.8996  157.9752  133.5419 H   0  0  0  0  0  0  0  0  0  0  0  0
  139.8067  155.2783  134.4226 H   0  0  0  0  0  0  0  0  0  0  0  0
  142.8603  156.1543  133.4606 H   0  0  0  0  0  0  0  0  0  0  0  0
  1  2  1  0
  2  3  1  0
  3  4  1  0
  4  5  1  0
  5  6  1  0
  6  7  1  0
  7  8  1  0
  8  9  2  0
  8 10  1  0
 10 11  1  0
 11 12  1  0
 12 13  1  0
 12 14  2  0
 11 15  2  0
 15 16  1  0
 16 17  2  0
 17 18  1  0
 18 19  2  0
 19 20  1  0
 20 21  1  0
 20 22  1  0
 19 23  1  0
 23 24  2  0
 24 10  1  0
 24 16  1  0
  1 25  1  0
  1 26  1  0
  1 27  1  0
  3 28  1  0
  3 29  1  0
  4 30  1  0
  4 31  1  0
  6 32  1  0
  6 33  1  0
 13 34  1  0
 13 35  1  0
 15 36  1  0
 17 37  1  0
 18 38  1  0
 20 39  1  0
 23 40  1  0
M  END
>  <UniqueID>  (94) 
91

>  <SMILES>  (94) 
COCCOCOC(=O)n1c(C(N)=O)cc2ccc(C(F)F)cc21

>  <Energy>  (94) 
77.68918505821203

>  <Genealogy>  (94) 
COCCOCOC(=O)n1c(C(N)=O)cc2ccc(C(F)F)cc21 (3D coordinates assigned)
COCCOCOC(=O)n1c(C(N)=O)cc2ccc(C(F)F)cc21 (optimized conformer: 77.68918505821203 kcal/mol)

>  <smiles>  (94) 
COCCOCOC(=O)n1c(C(N)=O)cc2ccc(C(F)F)cc21

>  <score_type>  (94) 
oracle

>  <origin>  (94) 
adg

>  <m_score__min__energy>  (94) 
-5.1299999999999999

>  <m_primary>  (94) 
energy

$$$$
97:0
     RDKit          3D

 40 42  0  0  0  0  0  0  0  0999 V2000
  139.4420  158.6960  130.3590 C   0  0  0  0  0  0  0  0  0  0  0  0
  138.7620  159.5710  131.4230 C   0  0  0  0  0  0  0  0  0  0  0  0
  138.6460  161.0100  130.8860 C   0  0  0  0  0  0  0  0  0  0  0  0
  137.3680  158.9890  131.7270 C   0  0  0  0  0  0  0  0  0  0  0  0
  139.5890  159.5330  132.5930 O   0  0  0  0  0  0  0  0  0  0  0  0
  139.7440  158.4490  133.4710 C   0  0  0  0  0  0  0  0  0  0  0  0
  138.8050  158.0950  134.2320 O   0  0  0  0  0  0  0  0  0  0  0  0
  140.9840  157.7250  133.4850 N   0  0  0  0  0  0  0  0  0  0  0  0
  141.1690  156.3820  133.3370 C   0  0  0  0  0  0  0  0  0  0  0  0
  140.0910  155.3690  133.2730 C   0  0  0  0  0  0  0  0  0  0  0  0
  138.7470  155.7530  132.9740 N   0  0  0  0  0  0  0  0  0  0  0  0
  140.3560  154.1510  133.4500 O   0  0  0  0  0  0  0  0  0  0  0  0
  142.5280  156.0730  133.3510 C   0  0  0  0  0  0  0  0  0  0  0  0
  143.1740  157.2770  133.5160 C   0  0  0  0  0  0  0  0  0  0  0  0
  144.5350  157.5590  133.5900 C   0  0  0  0  0  0  0  0  0  0  0  0
  144.9230  158.9010  133.7370 C   0  0  0  0  0  0  0  0  0  0  0  0
  143.9520  159.9340  133.7980 C   0  0  0  0  0  0  0  0  0  0  0  0
  144.3730  161.3440  133.9410 C   0  0  0  0  0  0  0  0  0  0  0  0
  145.5250  161.7300  134.5260 N   0  0  0  0  0  0  0  0  0  0  0  0
  145.4600  163.0710  134.4180 C   0  0  0  0  0  0  0  0  0  0  0  0
  144.3350  163.4790  133.8050 N   0  0  0  0  0  0  0  0  0  0  0  0
  143.6490  162.3920  133.5030 N   0  0  0  0  0  0  0  0  0  0  0  0
  142.5790  159.6060  133.7190 C   0  0  0  0  0  0  0  0  0  0  0  0
  142.2210  158.2580  133.5920 C   0  0  0  0  0  0  0  0  0  0  0  0
  140.0451  157.9200  130.8531 H   0  0  0  0  0  0  0  0  0  0  0  0
  138.6748  158.2196  129.7310 H   0  0  0  0  0  0  0  0  0  0  0  0
  140.0931  159.3219  129.7310 H   0  0  0  0  0  0  0  0  0  0  0  0
  138.5893  161.7129  131.7302 H   0  0  0  0  0  0  0  0  0  0  0  0
  139.5281  161.2445  130.2722 H   0  0  0  0  0  0  0  0  0  0  0  0
  137.7377  161.1002  130.2722 H   0  0  0  0  0  0  0  0  0  0  0  0
  137.2251  158.9293  132.8161 H   0  0  0  0  0  0  0  0  0  0  0  0
  136.5958  159.6399  131.2910 H   0  0  0  0  0  0  0  0  0  0  0  0
  137.2879  157.9823  131.2910 H   0  0  0  0  0  0  0  0  0  0  0  0
  138.0020  155.0260  132.8930 H   0  0  0  0  0  0  0  0  0  0  0  0
  138.4770  156.7550  132.8770 H   0  0  0  0  0  0  0  0  0  0  0  0
  142.9868  155.0782  133.2513 H   0  0  0  0  0  0  0  0  0  0  0  0
  145.2841  156.7553  133.5350 H   0  0  0  0  0  0  0  0  0  0  0  0
  145.9913  159.1540  133.8056 H   0  0  0  0  0  0  0  0  0  0  0  0
  146.2383  163.7542  134.7889 H   0  0  0  0  0  0  0  0  0  0  0  0
  141.8098  160.3914  133.7564 H   0  0  0  0  0  0  0  0  0  0  0  0
  1  2  1  0
  2  3  1  0
  2  4  1  0
  2  5  1  0
  5  6  1  0
  6  7  2  0
  6  8  1  0
  8  9  1  0
  9 10  1  0
 10 11  1  0
 10 12  2  0
  9 13  2  0
 13 14  1  0
 14 15  2  0
 15 16  1  0
 16 17  2  0
 17 18  1  0
 18 19  2  0
 19 20  1  0
 20 21  2  0
 21 22  1  0
 17 23  1  0
 23 24  2  0
 24  8  1  0
 24 14  1  0
 22 18  1  0
  1 25  1  0
  1 26  1  0
  1 27  1  0
  3 28  1  0
  3 29  1  0
  3 30  1  0
  4 31  1  0
  4 32  1  0
  4 33  1  0
 11 34  1  0
 11 35  1  0
 13 36  1  0
 15 37  1  0
 16 38  1  0
 20 39  1  0
 23 40  1  0
M  CHG  1  22  -1
M  END
>  <UniqueID>  (95) 
92

>  <SMILES>  (95) 
CC(C)(C)OC(=O)n1c(C(N)=O)cc2ccc(-c3ncn[n-]3)cc21

>  <Energy>  (95) 
107.88749152138868

>  <Genealogy>  (95) 
CC(C)(C)OC(=O)n1c(C(N)=O)cc2ccc(-c3ncn[n-]3)cc21 (protonated)
CC(C)(C)OC(=O)n1c(C(N)=O)cc2ccc(-c3ncn[n-]3)cc21 (3D coordinates assigned)
CC(C)(C)OC(=O)n1c(C(N)=O)cc2ccc(-c3ncn[n-]3)cc21 (optimized conformer: 107.88749152138868 kcal/mol)

>  <smiles>  (95) 
CC(C)(C)OC(=O)n1c(C(N)=O)cc2ccc(-c3ncn[nH]3)cc21

>  <score_type>  (95) 
oracle

>  <origin>  (95) 
adg

>  <m_score__min__energy>  (95) 
-7.8399999999999999

>  <m_primary>  (95) 
energy

$$$$
