0:0
     RDKit          3D

 38 39  0  0  1  0  0  0  0  0999 V2000
  146.0900  162.8350  134.9020 N   0  0  0  0  0  0  0  0  0  0  0  0
  144.9360  162.4100  134.1080 C   0  0  0  0  0  0  0  0  0  0  0  0
  144.3070  163.3800  133.6380 O   0  0  0  0  0  0  0  0  0  0  0  0
  144.6630  161.0060  133.9570 C   0  0  0  0  0  0  0  0  0  0  0  0
  143.3840  160.4870  134.2270 C   0  0  0  0  0  0  0  0  0  0  0  0
  143.3780  159.1540  134.0130 C   0  0  0  0  0  0  0  0  0  0  0  0
  142.3640  158.2310  134.1440 C   0  0  0  0  0  0  0  0  0  0  0  0
  142.5850  156.9020  133.8680 C   0  0  0  0  0  0  0  0  0  0  0  0
  143.8490  156.5470  133.4600 C   0  0  0  0  0  0  0  0  0  0  0  0
  144.1210  155.1480  133.1580 C   0  0  0  0  0  0  0  0  0  0  0  0
  144.3350  153.9880  132.9070 C   0  0  0  0  0  0  0  0  0  0  0  0
  144.6000  152.5720  132.6250 C   0  0  0  0  0  0  0  0  0  0  0  0
  145.8890  152.3570  132.1390 O   0  0  0  0  0  0  0  0  0  0  0  0
  144.8600  157.4890  133.3330 C   0  0  0  0  0  0  0  0  0  0  0  0
  144.6610  158.8250  133.6030 C   0  0  0  0  0  0  0  0  0  0  0  0
  145.4390  159.9490  133.5710 N   0  0  0  0  0  0  0  0  0  0  0  0
  146.7930  160.0450  133.2110 C   0  0  0  0  0  0  0  0  0  0  0  0
  147.3190  161.2150  133.3190 O   0  0  0  0  0  0  0  0  0  0  0  0
  147.7070  159.0480  132.7380 C   0  0  0  0  0  0  0  0  0  0  0  0
  147.8160  157.9170  133.4760 C   0  0  0  0  0  0  0  0  0  0  0  0
  148.7640  156.8320  133.0260 C   0  0  0  0  0  0  0  0  0  0  0  0
  148.0790  155.5170  133.0560 C   0  0  0  0  0  0  0  0  0  0  0  0
  148.0640  154.8940  134.1460 O   0  0  0  0  0  0  0  0  0  0  0  0
  147.4640  154.9550  131.9380 O   0  0  0  0  0  0  0  0  0  0  0  0
  147.0450  162.5660  134.5710 H   0  0  0  0  0  0  0  0  0  0  0  0
  145.9220  163.3900  135.7700 H   0  0  0  0  0  0  0  0  0  0  0  0
  142.5189  161.0781  134.5621 H   0  0  0  0  0  0  0  0  0  0  0  0
  141.3673  158.5603  134.4727 H   0  0  0  0  0  0  0  0  0  0  0  0
  141.7843  156.1546  133.9694 H   0  0  0  0  0  0  0  0  0  0  0  0
  144.4729  151.9973  133.5543 H   0  0  0  0  0  0  0  0  0  0  0  0
  143.8914  152.2473  131.8488 H   0  0  0  0  0  0  0  0  0  0  0  0
  146.2500  153.1600  131.6900 H   0  0  0  0  0  0  0  0  0  0  0  0
  145.8560  157.1569  133.0049 H   0  0  0  0  0  0  0  0  0  0  0  0
  148.2929  159.1941  131.8186 H   0  0  0  0  0  0  0  0  0  0  0  0
  147.2206  157.7909  134.3923 H   0  0  0  0  0  0  0  0  0  0  0  0
  149.1006  157.0443  132.0005 H   0  0  0  0  0  0  0  0  0  0  0  0
  149.6298  156.8042  133.7040 H   0  0  0  0  0  0  0  0  0  0  0  0
  147.3910  153.9360  131.8750 H   0  0  0  0  0  0  0  0  0  0  0  0
  1  2  1  0
  2  3  2  0
  2  4  1  0
  4  5  2  0
  5  6  1  0
  6  7  2  0
  7  8  1  0
  8  9  2  0
  9 10  1  0
 10 11  3  0
 11 12  1  0
 12 13  1  0
  9 14  1  0
 14 15  2  0
 15 16  1  0
 16 17  1  0
 17 18  2  0
 17 19  1  0
 19 20  2  0
 20 21  1  0
 21 22  1  0
 22 23  2  0
 22 24  1  0
 16  4  1  0
 15  6  1  0
  1 25  1  0
  1 26  1  0
  5 27  1  0
  7 28  1  0
  8 29  1  0
 12 30  1  0
 12 31  1  0
 13 32  1  0
 14 33  1  0
 19 34  1  0
 20 35  1  0
 21 36  1  0
 21 37  1  0
 24 38  1  0
M  END
>  <smiles>  (1) 
NC(=O)c1cc2ccc(C#CCO)cc2n1C(=O)C=CCC(=O)O

>  <score_type>  (1) 
oracle

>  <origin>  (1) 
adg

>  <m_score__min__energy>  (1) 
-7.7300000000000004

>  <m_primary>  (1) 
energy

$$$$
1:0
     RDKit          3D

 42 43  0  0  0  0  0  0  0  0999 V2000
  140.7640  158.1970  135.2700 C   0  0  0  0  0  0  0  0  0  0  0  0
  141.8270  158.6070  134.8400 C   0  0  0  0  0  0  0  0  0  0  0  0
  143.0860  159.1040  134.3510 C   0  0  0  0  0  0  0  0  0  0  0  0
  143.2260  160.4580  134.1900 C   0  0  0  0  0  0  0  0  0  0  0  0
  144.4260  160.9360  133.7230 C   0  0  0  0  0  0  0  0  0  0  0  0
  145.4460  160.0420  133.4350 C   0  0  0  0  0  0  0  0  0  0  0  0
  146.6980  160.3040  132.9680 C   0  0  0  0  0  0  0  0  0  0  0  0
  147.3110  159.0600  132.8540 C   0  0  0  0  0  0  0  0  0  0  0  0
  148.7350  159.0000  132.4700 C   0  0  0  0  0  0  0  0  0  0  0  0
  149.3800  157.7230  132.2750 N   0  0  0  0  0  0  0  0  0  0  0  0
  149.4520  159.9960  132.2960 O   0  0  0  0  0  0  0  0  0  0  0  0
  146.5200  158.0640  133.2110 N   0  0  0  0  0  0  0  0  0  0  0  0
  146.5620  156.6730  133.0880 C   0  0  0  0  0  0  0  0  0  0  0  0
  147.0390  156.2630  131.9220 O   0  0  0  0  0  0  0  0  0  0  0  0
  146.2370  155.5880  133.8880 N   0  0  0  0  0  0  0  0  0  0  0  0
  147.3570  155.1840  134.8080 C   0  0  0  0  0  0  0  0  0  0  0  0
  147.6120  153.7190  134.7440 C   0  0  0  0  0  0  0  0  0  0  0  0
  148.3730  153.4270  133.5020 C   0  0  0  0  0  0  0  0  0  0  0  0
  147.8710  153.9040  132.2580 N   0  0  0  0  0  0  0  0  0  0  0  0
  149.4450  152.7780  133.4800 O   0  0  0  0  0  0  0  0  0  0  0  0
  145.0280  154.8730  134.1220 C   0  0  0  0  0  0  0  0  0  0  0  0
  144.2090  154.8320  132.8190 C   0  0  0  0  0  0  0  0  0  0  0  0
  142.9530  154.8700  132.8760 O   0  0  0  0  0  0  0  0  0  0  0  0
  144.8680  154.7510  131.6000 O   0  0  0  0  0  0  0  0  0  0  0  0
  145.3420  158.6970  133.5830 C   0  0  0  0  0  0  0  0  0  0  0  0
  144.1280  158.2210  134.0540 C   0  0  0  0  0  0  0  0  0  0  0  0
  139.8038  157.8267  135.6584 H   0  0  0  0  0  0  0  0  0  0  0  0
  142.3994  161.1435  134.4284 H   0  0  0  0  0  0  0  0  0  0  0  0
  144.5762  162.0162  133.5791 H   0  0  0  0  0  0  0  0  0  0  0  0
  147.1314  161.2871  132.7318 H   0  0  0  0  0  0  0  0  0  0  0  0
  149.9900  157.3020  133.0170 H   0  0  0  0  0  0  0  0  0  0  0  0
  149.1890  157.2660  131.3550 H   0  0  0  0  0  0  0  0  0  0  0  0
  148.2719  155.7195  134.5144 H   0  0  0  0  0  0  0  0  0  0  0  0
  147.0678  155.4400  135.8380 H   0  0  0  0  0  0  0  0  0  0  0  0
  148.1980  153.4057  135.6206 H   0  0  0  0  0  0  0  0  0  0  0  0
  146.6587  153.1702  134.7398 H   0  0  0  0  0  0  0  0  0  0  0  0
  148.4680  154.0300  131.4250 H   0  0  0  0  0  0  0  0  0  0  0  0
  146.8670  154.1380  132.1690 H   0  0  0  0  0  0  0  0  0  0  0  0
  145.2625  153.8472  134.4425 H   0  0  0  0  0  0  0  0  0  0  0  0
  144.4469  155.3739  134.9103 H   0  0  0  0  0  0  0  0  0  0  0  0
  145.2930  155.5510  131.1490 H   0  0  0  0  0  0  0  0  0  0  0  0
  143.9837  157.1397  134.1951 H   0  0  0  0  0  0  0  0  0  0  0  0
  1  2  3  0
  2  3  1  0
  3  4  2  0
  4  5  1  0
  5  6  2  0
  6  7  1  0
  7  8  2  0
  8  9  1  0
  9 10  1  0
  9 11  2  0
  8 12  1  0
 12 13  1  0
 13 14  2  0
 13 15  1  0
 15 16  1  0
 16 17  1  0
 17 18  1  0
 18 19  1  0
 18 20  2  0
 15 21  1  0
 21 22  1  0
 22 23  2  0
 22 24  1  0
 12 25  1  0
 25 26  2  0
 26  3  1  0
 25  6  1  0
  1 27  1  0
  4 28  1  0
  5 29  1  0
  7 30  1  0
 10 31  1  0
 10 32  1  0
 16 33  1  0
 16 34  1  0
 17 35  1  0
 17 36  1  0
 19 37  1  0
 19 38  1  0
 21 39  1  0
 21 40  1  0
 24 41  1  0
 26 42  1  0
M  END
>  <smiles>  (2) 
C#Cc1ccc2cc(C(N)=O)n(C(=O)N(CCC(N)=O)CC(=O)O)c2c1

>  <score_type>  (2) 
oracle

>  <origin>  (2) 
adg

>  <m_score__min__energy>  (2) 
-7.4800000000000004

>  <m_primary>  (2) 
energy

$$$$
2:0
     RDKit          3D

 36 37  0  0  0  0  0  0  0  0999 V2000
  148.8540  158.5710  134.1280 N   0  0  0  0  0  0  0  0  0  0  0  0
  147.8380  158.9130  133.2340 C   0  0  0  0  0  0  0  0  0  0  0  0
  148.2750  159.2040  132.0490 O   0  0  0  0  0  0  0  0  0  0  0  0
  146.4240  158.9900  133.4190 C   0  0  0  0  0  0  0  0  0  0  0  0
  145.7660  160.2370  133.4700 C   0  0  0  0  0  0  0  0  0  0  0  0
  144.4300  160.0570  133.6530 C   0  0  0  0  0  0  0  0  0  0  0  0
  143.4110  160.9660  133.7600 C   0  0  0  0  0  0  0  0  0  0  0  0
  142.1220  160.5240  133.9430 C   0  0  0  0  0  0  0  0  0  0  0  0
  141.8850  159.1760  134.0150 C   0  0  0  0  0  0  0  0  0  0  0  0
  140.4910  158.6810  134.2130 C   0  0  0  0  0  0  0  0  0  0  0  0
  140.2140  158.4100  135.6770 C   0  0  0  0  0  0  0  0  0  0  0  0
  138.8440  158.2020  135.8220 F   0  0  0  0  0  0  0  0  0  0  0  0
  140.8790  157.2870  136.1120 F   0  0  0  0  0  0  0  0  0  0  0  0
  140.5600  159.5410  136.3850 F   0  0  0  0  0  0  0  0  0  0  0  0
  142.9470  158.2700  133.9010 C   0  0  0  0  0  0  0  0  0  0  0  0
  144.2460  158.6830  133.7190 C   0  0  0  0  0  0  0  0  0  0  0  0
  145.4530  158.0590  133.5770 N   0  0  0  0  0  0  0  0  0  0  0  0
  145.6630  156.6660  133.5960 C   0  0  0  0  0  0  0  0  0  0  0  0
  145.2720  155.9360  134.5750 O   0  0  0  0  0  0  0  0  0  0  0  0
  146.3350  155.8650  132.5380 C   0  0  0  0  0  0  0  0  0  0  0  0
  148.0650  155.5040  133.0500 P   0  0  0  0  0  0  0  0  0  0  0  0
  148.1270  155.6490  134.5610 O   0  0  0  0  0  0  0  0  0  0  0  0
  149.0710  156.5830  132.2550 O   0  0  0  0  0  0  0  0  0  0  0  0
  148.4130  153.9140  132.6640 O   0  0  0  0  0  0  0  0  0  0  0  0
  149.1270  157.5430  134.1800 H   0  0  0  0  0  0  0  0  0  0  0  0
  149.3350  159.2990  134.7170 H   0  0  0  0  0  0  0  0  0  0  0  0
  146.2619  161.2143  133.3754 H   0  0  0  0  0  0  0  0  0  0  0  0
  143.6228  162.0438  133.6998 H   0  0  0  0  0  0  0  0  0  0  0  0
  141.2930  161.2418  134.0303 H   0  0  0  0  0  0  0  0  0  0  0  0
  139.7843  159.4407  133.8478 H   0  0  0  0  0  0  0  0  0  0  0  0
  140.3700  157.7415  133.6537 H   0  0  0  0  0  0  0  0  0  0  0  0
  142.7349  157.1922  133.9590 H   0  0  0  0  0  0  0  0  0  0  0  0
  145.7909  154.9202  132.3918 H   0  0  0  0  0  0  0  0  0  0  0  0
  146.3418  156.4330  131.5960 H   0  0  0  0  0  0  0  0  0  0  0  0
  148.5690  157.0900  131.5660 H   0  0  0  0  0  0  0  0  0  0  0  0
  147.9570  153.6940  131.8040 H   0  0  0  0  0  0  0  0  0  0  0  0
  1  2  1  0
  2  3  2  0
  2  4  1  0
  4  5  2  0
  5  6  1  0
  6  7  2  0
  7  8  1  0
  8  9  2  0
  9 10  1  0
 10 11  1  0
 11 12  1  0
 11 13  1  0
 11 14  1  0
  9 15  1  0
 15 16  2  0
 16 17  1  0
 17 18  1  0
 18 19  2  0
 18 20  1  0
 20 21  1  0
 21 22  2  0
 21 23  1  0
 21 24  1  0
 17  4  1  0
 16  6  1  0
  1 25  1  0
  1 26  1  0
  5 27  1  0
  7 28  1  0
  8 29  1  0
 10 30  1  0
 10 31  1  0
 15 32  1  0
 20 33  1  0
 20 34  1  0
 23 35  1  0
 24 36  1  0
M  END
>  <smiles>  (3) 
NC(=O)c1cc2ccc(CC(F)(F)F)cc2n1C(=O)CP(=O)(O)O

>  <score_type>  (3) 
oracle

>  <origin>  (3) 
adg

>  <m_score__min__energy>  (3) 
-7.0700000000000003

>  <m_primary>  (3) 
energy

$$$$
3:0
     RDKit          3D

 41 43  0  0  0  0  0  0  0  0999 V2000
  142.2650  156.4660  133.5430 N   0  0  0  0  0  0  0  0  0  0  0  0
  143.5760  156.0880  133.8950 C   0  0  0  0  0  0  0  0  0  0  0  0
  143.6640  155.0580  134.6340 O   0  0  0  0  0  0  0  0  0  0  0  0
  144.8110  156.7250  133.5170 C   0  0  0  0  0  0  0  0  0  0  0  0
  145.9700  156.0000  133.2550 C   0  0  0  0  0  0  0  0  0  0  0  0
  146.9910  156.8490  132.9210 C   0  0  0  0  0  0  0  0  0  0  0  0
  148.3070  156.6080  132.5840 C   0  0  0  0  0  0  0  0  0  0  0  0
  149.1520  157.6530  132.2820 C   0  0  0  0  0  0  0  0  0  0  0  0
  148.6390  158.9290  132.3300 C   0  0  0  0  0  0  0  0  0  0  0  0
  149.5410  160.0900  132.0050 C   0  0  0  0  0  0  0  0  0  0  0  0
  149.4970  160.4800  130.2840 Cl  0  0  0  0  0  0  0  0  0  0  0  0
  147.3030  159.1570  132.6740 C   0  0  0  0  0  0  0  0  0  0  0  0
  146.4480  158.1200  132.9770 C   0  0  0  0  0  0  0  0  0  0  0  0
  145.1370  158.0170  133.3380 N   0  0  0  0  0  0  0  0  0  0  0  0
  144.3110  159.1500  133.4800 C   0  0  0  0  0  0  0  0  0  0  0  0
  144.7420  160.2670  133.0370 O   0  0  0  0  0  0  0  0  0  0  0  0
  143.0650  159.1950  134.0550 O   0  0  0  0  0  0  0  0  0  0  0  0
  141.8740  159.5070  133.3910 C   0  0  0  0  0  0  0  0  0  0  0  0
  141.4470  158.5020  132.4800 O   0  0  0  0  0  0  0  0  0  0  0  0
  140.1270  158.0760  132.4080 C   0  0  0  0  0  0  0  0  0  0  0  0
  139.8480  157.0140  133.0330 O   0  0  0  0  0  0  0  0  0  0  0  0
  139.1390  158.8320  131.6460 C   0  0  0  0  0  0  0  0  0  0  0  0
  137.7930  158.6410  131.8510 C   0  0  0  0  0  0  0  0  0  0  0  0
  136.9240  159.4070  131.0790 C   0  0  0  0  0  0  0  0  0  0  0  0
  137.4190  160.3160  130.1530 C   0  0  0  0  0  0  0  0  0  0  0  0
  138.7440  160.4720  129.9850 N   0  0  0  0  0  0  0  0  0  0  0  0
  139.6030  159.7420  130.7200 C   0  0  0  0  0  0  0  0  0  0  0  0
  141.8210  156.0680  132.6630 H   0  0  0  0  0  0  0  0  0  0  0  0
  141.7280  157.1400  134.1660 H   0  0  0  0  0  0  0  0  0  0  0  0
  146.0535  154.9045  133.3085 H   0  0  0  0  0  0  0  0  0  0  0  0
  148.6838  155.5749  132.5563 H   0  0  0  0  0  0  0  0  0  0  0  0
  150.2029  157.4734  132.0112 H   0  0  0  0  0  0  0  0  0  0  0  0
  149.2134  160.9691  132.5794 H   0  0  0  0  0  0  0  0  0  0  0  0
  150.5717  159.8116  132.2700 H   0  0  0  0  0  0  0  0  0  0  0  0
  146.9253  160.1897  132.7034 H   0  0  0  0  0  0  0  0  0  0  0  0
  141.0847  159.6517  134.1433 H   0  0  0  0  0  0  0  0  0  0  0  0
  142.0635  160.4159  132.8011 H   0  0  0  0  0  0  0  0  0  0  0  0
  137.4202  157.9169  132.5904 H   0  0  0  0  0  0  0  0  0  0  0  0
  135.8372  159.2914  131.2033 H   0  0  0  0  0  0  0  0  0  0  0  0
  136.7198  160.9146  129.5507 H   0  0  0  0  0  0  0  0  0  0  0  0
  140.6863  159.8727  130.5806 H   0  0  0  0  0  0  0  0  0  0  0  0
  1  2  1  0
  2  3  2  0
  2  4  1  0
  4  5  2  0
  5  6  1  0
  6  7  2  0
  7  8  1  0
  8  9  2  0
  9 10  1  0
 10 11  1  0
  9 12  1  0
 12 13  2  0
 13 14  1  0
 14 15  1  0
 15 16  2  0
 15 17  1  0
 17 18  1  0
 18 19  1  0
 19 20  1  0
 20 21  2  0
 20 22  1  0
 22 23  2  0
 23 24  1  0
 24 25  2  0
 25 26  1  0
 26 27  2  0
 14  4  1  0
 27 22  1  0
 13  6  1  0
  1 28  1  0
  1 29  1  0
  5 30  1  0
  7 31  1  0
  8 32  1  0
 10 33  1  0
 10 34  1  0
 12 35  1  0
 18 36  1  0
 18 37  1  0
 23 38  1  0
 24 39  1  0
 25 40  1  0
 27 41  1  0
M  END
>  <smiles>  (4) 
NC(=O)c1cc2ccc(CCl)cc2n1C(=O)OCOC(=O)c1cccnc1

>  <score_type>  (4) 
oracle

>  <origin>  (4) 
adg

>  <m_score__min__energy>  (4) 
-7.6299999999999999

>  <m_primary>  (4) 
energy

$$$$
4:0
     RDKit          3D

 51 53  0  0  0  0  0  0  0  0999 V2000
  141.3560  160.4690  133.7660 C   0  0  0  0  0  0  0  0  0  0  0  0
  140.8880  159.0500  133.5760 C   0  0  0  0  0  0  0  0  0  0  0  0
  139.5640  158.7830  133.3220 C   0  0  0  0  0  0  0  0  0  0  0  0
  139.2010  157.4750  133.1590 C   0  0  0  0  0  0  0  0  0  0  0  0
  140.1460  156.4750  133.2480 C   0  0  0  0  0  0  0  0  0  0  0  0
  140.0040  155.1300  133.1120 C   0  0  0  0  0  0  0  0  0  0  0  0
  141.2700  154.5050  133.2830 C   0  0  0  0  0  0  0  0  0  0  0  0
  141.3470  153.0800  133.1830 C   0  0  0  0  0  0  0  0  0  0  0  0
  141.3900  152.2100  132.0820 N   0  0  0  0  0  0  0  0  0  0  0  0
  141.3750  152.4380  134.3110 O   0  0  0  0  0  0  0  0  0  0  0  0
  142.1770  155.5190  133.5280 N   0  0  0  0  0  0  0  0  0  0  0  0
  143.5030  155.2600  133.7860 C   0  0  0  0  0  0  0  0  0  0  0  0
  143.6560  154.5920  134.9240 O   0  0  0  0  0  0  0  0  0  0  0  0
  144.7840  155.4470  133.2750 N   0  0  0  0  0  0  0  0  0  0  0  0
  145.0530  154.4900  132.1250 C   0  0  0  0  0  0  0  0  0  0  0  0
  145.1780  153.1160  132.5530 C   0  0  0  0  0  0  0  0  0  0  0  0
  146.2030  152.4220  132.6450 O   0  0  0  0  0  0  0  0  0  0  0  0
  143.9770  152.4540  132.9220 O   0  0  0  0  0  0  0  0  0  0  0  0
  145.8950  156.2470  133.6190 C   0  0  0  0  0  0  0  0  0  0  0  0
  145.8280  157.6870  133.3390 C   0  0  0  0  0  0  0  0  0  0  0  0
  144.8290  158.4250  133.4200 O   0  0  0  0  0  0  0  0  0  0  0  0
  147.0530  158.3240  132.9260 N   0  0  0  0  0  0  0  0  0  0  0  0
  146.9640  159.7450  132.6570 C   0  0  0  0  0  0  0  0  0  0  0  0
  148.1110  160.2180  131.8080 C   0  0  0  0  0  0  0  0  0  0  0  0
  149.3060  159.7340  132.3420 O   0  0  0  0  0  0  0  0  0  0  0  0
  149.3260  158.3670  132.0320 C   0  0  0  0  0  0  0  0  0  0  0  0
  148.2940  157.6000  132.7870 C   0  0  0  0  0  0  0  0  0  0  0  0
  141.4790  156.6960  133.5000 C   0  0  0  0  0  0  0  0  0  0  0  0
  141.8190  158.0220  133.6610 C   0  0  0  0  0  0  0  0  0  0  0  0
  141.4290  160.6902  134.8411 H   0  0  0  0  0  0  0  0  0  0  0  0
  142.3434  160.5952  133.2979 H   0  0  0  0  0  0  0  0  0  0  0  0
  140.6375  161.1579  133.2979 H   0  0  0  0  0  0  0  0  0  0  0  0
  138.8228  159.5928  133.2523 H   0  0  0  0  0  0  0  0  0  0  0  0
  138.1506  157.2194  132.9560 H   0  0  0  0  0  0  0  0  0  0  0  0
  139.0590  154.6074  132.9027 H   0  0  0  0  0  0  0  0  0  0  0  0
  140.5890  152.0930  131.3860 H   0  0  0  0  0  0  0  0  0  0  0  0
  142.2200  151.5810  131.8540 H   0  0  0  0  0  0  0  0  0  0  0  0
  144.2212  154.5599  131.4086 H   0  0  0  0  0  0  0  0  0  0  0  0
  146.0112  154.7821  131.6705 H   0  0  0  0  0  0  0  0  0  0  0  0
  143.4760  152.7650  133.7500 H   0  0  0  0  0  0  0  0  0  0  0  0
  146.0564  156.1326  134.7011 H   0  0  0  0  0  0  0  0  0  0  0  0
  146.7047  155.8812  132.9705 H   0  0  0  0  0  0  0  0  0  0  0  0
  146.0206  159.9506  132.1300 H   0  0  0  0  0  0  0  0  0  0  0  0
  147.0012  160.2809  133.6169 H   0  0  0  0  0  0  0  0  0  0  0  0
  147.9881  159.8430  130.7812 H   0  0  0  0  0  0  0  0  0  0  0  0
  148.1311  161.3177  131.7927 H   0  0  0  0  0  0  0  0  0  0  0  0
  149.1390  158.2459  130.9548 H   0  0  0  0  0  0  0  0  0  0  0  0
  150.3128  157.9722  132.3155 H   0  0  0  0  0  0  0  0  0  0  0  0
  148.0946  156.6589  132.2535 H   0  0  0  0  0  0  0  0  0  0  0  0
  148.6881  157.4188  133.7979 H   0  0  0  0  0  0  0  0  0  0  0  0
  142.8695  158.2767  133.8649 H   0  0  0  0  0  0  0  0  0  0  0  0
  1  2  1  0
  2  3  2  0
  3  4  1  0
  4  5  2  0
  5  6  1  0
  6  7  2  0
  7  8  1  0
  8  9  1  0
  8 10  2  0
  7 11  1  0
 11 12  1  0
 12 13  2  0
 12 14  1  0
 14 15  1  0
 15 16  1  0
 16 17  2  0
 16 18  1  0
 14 19  1  0
 19 20  1  0
 20 21  2  0
 20 22  1  0
 22 23  1  0
 23 24  1  0
 24 25  1  0
 25 26  1  0
 26 27  1  0
 11 28  1  0
 28 29  2  0
 29  2  1  0
 28  5  1  0
 27 22  1  0
  1 30  1  0
  1 31  1  0
  1 32  1  0
  3 33  1  0
  4 34  1  0
  6 35  1  0
  9 36  1  0
  9 37  1  0
 15 38  1  0
 15 39  1  0
 18 40  1  0
 19 41  1  0
 19 42  1  0
 23 43  1  0
 23 44  1  0
 24 45  1  0
 24 46  1  0
 26 47  1  0
 26 48  1  0
 27 49  1  0
 27 50  1  0
 29 51  1  0
M  END
>  <smiles>  (5) 
Cc1ccc2cc(C(N)=O)n(C(=O)N(CC(=O)O)CC(=O)N3CCOCC3)c2c1

>  <score_type>  (5) 
oracle

>  <origin>  (5) 
adg

>  <m_score__min__energy>  (5) 
-8.3399999999999999

>  <m_primary>  (5) 
energy

$$$$
5:0
     RDKit          3D

 37 39  0  0  0  0  0  0  0  0999 V2000
  150.1390  158.5650  132.1960 N   0  0  0  0  0  0  0  0  0  0  0  0
  148.9640  159.2510  131.7050 C   0  0  0  0  0  0  0  0  0  0  0  0
  149.1770  160.0040  130.7260 O   0  0  0  0  0  0  0  0  0  0  0  0
  147.6810  159.0350  132.3440 C   0  0  0  0  0  0  0  0  0  0  0  0
  146.8150  160.1030  132.6300 C   0  0  0  0  0  0  0  0  0  0  0  0
  145.6940  159.6150  133.2240 C   0  0  0  0  0  0  0  0  0  0  0  0
  144.5580  160.2350  133.6930 C   0  0  0  0  0  0  0  0  0  0  0  0
  143.5610  159.5050  134.2560 C   0  0  0  0  0  0  0  0  0  0  0  0
  143.6980  158.1430  134.3510 C   0  0  0  0  0  0  0  0  0  0  0  0
  142.6490  157.3580  134.9450 N   0  0  0  0  0  0  0  0  0  0  0  0
  141.3080  157.6550  134.5360 C   0  0  0  0  0  0  0  0  0  0  0  0
  141.0260  157.6740  133.1770 C   0  0  0  0  0  0  0  0  0  0  0  0
  142.0490  157.4040  132.2300 N   0  0  0  0  0  0  0  0  0  0  0  0
  139.7360  157.9580  132.7560 C   0  0  0  0  0  0  0  0  0  0  0  0
  138.7400  158.2200  133.6760 C   0  0  0  0  0  0  0  0  0  0  0  0
  139.0490  158.1950  135.0320 C   0  0  0  0  0  0  0  0  0  0  0  0
  140.3250  157.9140  135.4740 C   0  0  0  0  0  0  0  0  0  0  0  0
  140.7460  157.8750  137.1660 Cl  0  0  0  0  0  0  0  0  0  0  0  0
  144.8430  157.5300  133.8760 C   0  0  0  0  0  0  0  0  0  0  0  0
  145.8840  158.2380  133.2960 C   0  0  0  0  0  0  0  0  0  0  0  0
  147.0820  157.9140  132.7610 N   0  0  0  0  0  0  0  0  0  0  0  0
  147.5860  156.5970  132.6760 C   0  0  0  0  0  0  0  0  0  0  0  0
  148.5820  156.1560  133.2860 O   0  0  0  0  0  0  0  0  0  0  0  0
  146.9430  155.6660  131.8450 O   0  0  0  0  0  0  0  0  0  0  0  0
  149.9660  157.6110  132.6310 H   0  0  0  0  0  0  0  0  0  0  0  0
  151.0900  158.9860  132.1240 H   0  0  0  0  0  0  0  0  0  0  0  0
  147.0119  161.1625  132.4092 H   0  0  0  0  0  0  0  0  0  0  0  0
  144.4573  161.3273  133.6113 H   0  0  0  0  0  0  0  0  0  0  0  0
  142.6535  160.0001  134.6318 H   0  0  0  0  0  0  0  0  0  0  0  0
  142.8780  156.6190  135.6330 H   0  0  0  0  0  0  0  0  0  0  0  0
  142.3700  156.4400  132.0500 H   0  0  0  0  0  0  0  0  0  0  0  0
  142.4810  158.2000  131.7100 H   0  0  0  0  0  0  0  0  0  0  0  0
  139.5040  157.9748  131.6809 H   0  0  0  0  0  0  0  0  0  0  0  0
  137.7167  158.4453  133.3412 H   0  0  0  0  0  0  0  0  0  0  0  0
  138.2585  158.4039  135.7679 H   0  0  0  0  0  0  0  0  0  0  0  0
  144.9312  156.4369  133.9619 H   0  0  0  0  0  0  0  0  0  0  0  0
  147.4390  155.1980  131.1130 H   0  0  0  0  0  0  0  0  0  0  0  0
  1  2  1  0
  2  3  2  0
  2  4  1  0
  4  5  2  0
  5  6  1  0
  6  7  2  0
  7  8  1  0
  8  9  2  0
  9 10  1  0
 10 11  1  0
 11 12  2  0
 12 13  1  0
 12 14  1  0
 14 15  2  0
 15 16  1  0
 16 17  2  0
 17 18  1  0
  9 19  1  0
 19 20  2  0
 20 21  1  0
 21 22  1  0
 22 23  2  0
 22 24  1  0
 21  4  1  0
 20  6  1  0
 17 11  1  0
  1 25  1  0
  1 26  1  0
  5 27  1  0
  7 28  1  0
  8 29  1  0
 10 30  1  0
 13 31  1  0
 13 32  1  0
 14 33  1  0
 15 34  1  0
 16 35  1  0
 19 36  1  0
 24 37  1  0
M  END
>  <smiles>  (6) 
NC(=O)c1cc2ccc(Nc3c(N)cccc3Cl)cc2n1C(=O)O

>  <score_type>  (6) 
oracle

>  <origin>  (6) 
adg

>  <m_score__min__energy>  (6) 
-8.3200000000000003

>  <m_primary>  (6) 
energy

$$$$
6:0
     RDKit          3D

 43 44  0  0  0  0  0  0  0  0999 V2000
  140.5840  159.3540  131.9230 C   0  0  0  0  0  0  0  0  0  0  0  0
  140.8670  158.9820  133.2840 N   0  0  0  0  0  0  0  0  0  0  0  0
  139.8450  158.0560  133.8720 C   0  0  0  0  0  0  0  0  0  0  0  0
  140.5320  156.7880  134.1900 C   0  0  0  0  0  0  0  0  0  0  0  0
  140.7550  156.3970  135.3780 O   0  0  0  0  0  0  0  0  0  0  0  0
  140.9540  155.9830  133.1450 O   0  0  0  0  0  0  0  0  0  0  0  0
  141.8970  159.3380  134.1220 C   0  0  0  0  0  0  0  0  0  0  0  0
  141.5670  159.5630  135.3610 O   0  0  0  0  0  0  0  0  0  0  0  0
  143.2980  159.5030  133.8550 N   0  0  0  0  0  0  0  0  0  0  0  0
  143.8180  160.8300  134.1060 C   0  0  0  0  0  0  0  0  0  0  0  0
  143.9980  158.4030  133.3710 C   0  0  0  0  0  0  0  0  0  0  0  0
  143.2520  157.6600  132.5660 O   0  0  0  0  0  0  0  0  0  0  0  0
  145.2720  157.8720  133.5200 N   0  0  0  0  0  0  0  0  0  0  0  0
  145.4720  156.6170  134.0430 C   0  0  0  0  0  0  0  0  0  0  0  0
  144.5660  155.7020  134.7040 C   0  0  0  0  0  0  0  0  0  0  0  0
  143.1450  155.7280  134.3770 N   0  0  0  0  0  0  0  0  0  0  0  0
  144.8550  154.8430  135.5670 O   0  0  0  0  0  0  0  0  0  0  0  0
  146.8320  156.3050  133.9270 C   0  0  0  0  0  0  0  0  0  0  0  0
  147.4650  157.3490  133.3390 C   0  0  0  0  0  0  0  0  0  0  0  0
  148.7860  157.5000  132.9850 C   0  0  0  0  0  0  0  0  0  0  0  0
  149.2180  158.6410  132.3470 C   0  0  0  0  0  0  0  0  0  0  0  0
  148.2780  159.6040  132.0830 C   0  0  0  0  0  0  0  0  0  0  0  0
  148.6780  160.8740  131.3870 C   0  0  0  0  0  0  0  0  0  0  0  0
  149.2830  160.4720  129.7650 Cl  0  0  0  0  0  0  0  0  0  0  0  0
  146.9590  159.4330  132.4470 C   0  0  0  0  0  0  0  0  0  0  0  0
  146.4910  158.3060  133.0930 C   0  0  0  0  0  0  0  0  0  0  0  0
  139.9180  160.2294  131.9131 H   0  0  0  0  0  0  0  0  0  0  0  0
  141.5236  159.6023  131.4078 H   0  0  0  0  0  0  0  0  0  0  0  0
  140.0940  158.5147  131.4078 H   0  0  0  0  0  0  0  0  0  0  0  0
  139.4221  158.4949  134.7877 H   0  0  0  0  0  0  0  0  0  0  0  0
  139.0211  157.8853  133.1635 H   0  0  0  0  0  0  0  0  0  0  0  0
  141.5040  156.4120  132.4110 H   0  0  0  0  0  0  0  0  0  0  0  0
  143.8841  160.9987  135.1910 H   0  0  0  0  0  0  0  0  0  0  0  0
  144.8188  160.9223  133.6589 H   0  0  0  0  0  0  0  0  0  0  0  0
  143.1463  161.5776  133.6589 H   0  0  0  0  0  0  0  0  0  0  0  0
  142.6260  154.8770  134.1350 H   0  0  0  0  0  0  0  0  0  0  0  0
  142.6610  156.6660  134.3980 H   0  0  0  0  0  0  0  0  0  0  0  0
  147.3069  155.3695  134.2576 H   0  0  0  0  0  0  0  0  0  0  0  0
  149.5052  156.6999  133.2144 H   0  0  0  0  0  0  0  0  0  0  0  0
  150.2718  158.7744  132.0613 H   0  0  0  0  0  0  0  0  0  0  0  0
  147.8062  161.5394  131.3020 H   0  0  0  0  0  0  0  0  0  0  0  0
  149.4638  161.3844  131.9631 H   0  0  0  0  0  0  0  0  0  0  0  0
  146.2438  160.2347  132.2109 H   0  0  0  0  0  0  0  0  0  0  0  0
  1  2  1  0
  2  3  1  0
  3  4  1  0
  4  5  2  0
  4  6  1  0
  2  7  1  0
  7  8  2  0
  7  9  1  0
  9 10  1  0
  9 11  1  0
 11 12  2  0
 11 13  1  0
 13 14  1  0
 14 15  1  0
 15 16  1  0
 15 17  2  0
 14 18  2  0
 18 19  1  0
 19 20  2  0
 20 21  1  0
 21 22  2  0
 22 23  1  0
 23 24  1  0
 22 25  1  0
 25 26  2  0
 26 13  1  0
 26 19  1  0
  1 27  1  0
  1 28  1  0
  1 29  1  0
  3 30  1  0
  3 31  1  0
  6 32  1  0
 10 33  1  0
 10 34  1  0
 10 35  1  0
 16 36  1  0
 16 37  1  0
 18 38  1  0
 20 39  1  0
 21 40  1  0
 23 41  1  0
 23 42  1  0
 25 43  1  0
M  END
>  <smiles>  (7) 
CN(CC(=O)O)C(=O)N(C)C(=O)n1c(C(N)=O)cc2ccc(CCl)cc21

>  <score_type>  (7) 
oracle

>  <origin>  (7) 
adg

>  <m_score__min__energy>  (7) 
-6.6699999999999999

>  <m_primary>  (7) 
energy

$$$$
7:0
     RDKit          3D

 40 42  0  0  0  0  0  0  0  0999 V2000
  143.2100  154.6840  136.7380 N   0  0  0  0  0  0  0  0  0  0  0  0
  141.8850  155.2870  136.8020 C   0  0  0  0  0  0  0  0  0  0  0  0
  141.2320  154.9540  137.8070 O   0  0  0  0  0  0  0  0  0  0  0  0
  141.4890  156.1710  135.7310 C   0  0  0  0  0  0  0  0  0  0  0  0
  141.5300  157.5700  135.9650 C   0  0  0  0  0  0  0  0  0  0  0  0
  141.0690  158.1770  134.8400 C   0  0  0  0  0  0  0  0  0  0  0  0
  140.9170  159.5190  134.5670 C   0  0  0  0  0  0  0  0  0  0  0  0
  140.4330  159.9430  133.3520 C   0  0  0  0  0  0  0  0  0  0  0  0
  140.1110  158.9750  132.4310 C   0  0  0  0  0  0  0  0  0  0  0  0
  139.5880  159.4130  131.1140 C   0  0  0  0  0  0  0  0  0  0  0  0
  140.5650  159.2870  130.1420 F   0  0  0  0  0  0  0  0  0  0  0  0
  139.0760  160.7030  131.1540 F   0  0  0  0  0  0  0  0  0  0  0  0
  138.5220  158.5940  130.7160 F   0  0  0  0  0  0  0  0  0  0  0  0
  140.2710  157.6170  132.7230 C   0  0  0  0  0  0  0  0  0  0  0  0
  140.7560  157.1840  133.9440 C   0  0  0  0  0  0  0  0  0  0  0  0
  141.0190  155.9490  134.4930 N   0  0  0  0  0  0  0  0  0  0  0  0
  140.7500  154.7750  133.7830 C   0  0  0  0  0  0  0  0  0  0  0  0
  139.7900  154.8790  132.9150 O   0  0  0  0  0  0  0  0  0  0  0  0
  141.3560  153.4810  133.8380 C   0  0  0  0  0  0  0  0  0  0  0  0
  142.2540  153.0790  134.5940 O   0  0  0  0  0  0  0  0  0  0  0  0
  140.8990  152.4550  132.9060 N   0  0  0  0  0  0  0  0  0  0  0  0
  141.4520  151.1330  132.8930 C   0  0  0  0  0  0  0  0  0  0  0  0
  140.7650  150.1510  131.9950 C   0  0  0  0  0  0  0  0  0  0  0  0
  139.7830  150.7370  131.1870 O   0  0  0  0  0  0  0  0  0  0  0  0
  140.2670  148.8800  132.6710 C   0  0  0  0  0  0  0  0  0  0  0  0
  141.3690  148.8600  131.6400 C   0  0  0  0  0  0  0  0  0  0  0  0
  143.3370  153.7080  136.3950 H   0  0  0  0  0  0  0  0  0  0  0  0
  143.9840  155.3070  137.0570 H   0  0  0  0  0  0  0  0  0  0  0  0
  141.8708  158.0692  136.8841 H   0  0  0  0  0  0  0  0  0  0  0  0
  141.1868  160.2618  135.3322 H   0  0  0  0  0  0  0  0  0  0  0  0
  140.3087  161.0124  133.1264 H   0  0  0  0  0  0  0  0  0  0  0  0
  140.0035  156.8714  131.9598 H   0  0  0  0  0  0  0  0  0  0  0  0
  140.1420  152.6670  132.2130 H   0  0  0  0  0  0  0  0  0  0  0  0
  142.5012  151.2086  132.5714 H   0  0  0  0  0  0  0  0  0  0  0  0
  141.3256  150.7449  133.9145 H   0  0  0  0  0  0  0  0  0  0  0  0
  140.1470  151.5960  130.8160 H   0  0  0  0  0  0  0  0  0  0  0  0
  140.4936  148.6887  133.7303 H   0  0  0  0  0  0  0  0  0  0  0  0
  139.2945  148.3817  132.7972 H   0  0  0  0  0  0  0  0  0  0  0  0
  142.4010  148.6371  131.9485 H   0  0  0  0  0  0  0  0  0  0  0  0
  141.5282  148.3195  130.6953 H   0  0  0  0  0  0  0  0  0  0  0  0
  1  2  1  0
  2  3  2  0
  2  4  1  0
  4  5  2  0
  5  6  1  0
  6  7  2  0
  7  8  1  0
  8  9  2  0
  9 10  1  0
 10 11  1  0
 10 12  1  0
 10 13  1  0
  9 14  1  0
 14 15  2  0
 15 16  1  0
 16 17  1  0
 17 18  2  0
 17 19  1  0
 19 20  2  0
 19 21  1  0
 21 22  1  0
 22 23  1  0
 23 24  1  0
 23 25  1  0
 25 26  1  0
 16  4  1  0
 26 23  1  0
 15  6  1  0
  1 27  1  0
  1 28  1  0
  5 29  1  0
  7 30  1  0
  8 31  1  0
 14 32  1  0
 21 33  1  0
 22 34  1  0
 22 35  1  0
 24 36  1  0
 25 37  1  0
 25 38  1  0
 26 39  1  0
 26 40  1  0
M  END
>  <smiles>  (8) 
NC(=O)c1cc2ccc(C(F)(F)F)cc2n1C(=O)C(=O)NCC1(O)CC1

>  <score_type>  (8) 
oracle

>  <origin>  (8) 
adg

>  <m_score__min__energy>  (8) 
-7.6900000000000004

>  <m_primary>  (8) 
energy

$$$$
8:0
     RDKit          3D

 50 51  0  0  0  0  0  0  0  0999 V2000
  140.1790  160.0350  132.6070 C   0  0  0  0  0  0  0  0  0  0  0  0
  141.2320  159.2700  133.2220 N   0  0  0  0  0  0  0  0  0  0  0  0
  142.1040  159.9500  134.1560 C   0  0  0  0  0  0  0  0  0  0  0  0
  143.5250  160.0380  133.6240 C   0  0  0  0  0  0  0  0  0  0  0  0
  144.2870  158.9380  134.0120 O   0  0  0  0  0  0  0  0  0  0  0  0
  141.4450  157.8910  132.9520 C   0  0  0  0  0  0  0  0  0  0  0  0
  142.5640  157.4270  132.6060 O   0  0  0  0  0  0  0  0  0  0  0  0
  140.2960  156.9810  133.0870 C   0  0  0  0  0  0  0  0  0  0  0  0
  140.6840  155.8980  134.1060 N   0  0  0  0  0  0  0  0  0  0  0  0
  140.6000  156.3680  135.4340 C   0  0  0  0  0  0  0  0  0  0  0  0
  141.9290  156.5220  136.1150 C   0  0  0  0  0  0  0  0  0  0  0  0
  142.2050  155.9430  137.1920 O   0  0  0  0  0  0  0  0  0  0  0  0
  142.8850  157.3400  135.5230 O   0  0  0  0  0  0  0  0  0  0  0  0
  140.9710  154.7150  133.4700 C   0  0  0  0  0  0  0  0  0  0  0  0
  139.9670  154.4900  132.6070 O   0  0  0  0  0  0  0  0  0  0  0  0
  141.9060  153.6950  133.4030 N   0  0  0  0  0  0  0  0  0  0  0  0
  143.2060  153.8740  133.7920 C   0  0  0  0  0  0  0  0  0  0  0  0
  143.9360  154.9230  134.4430 C   0  0  0  0  0  0  0  0  0  0  0  0
  144.4020  155.0310  135.7710 N   0  0  0  0  0  0  0  0  0  0  0  0
  144.2590  155.9780  133.7350 O   0  0  0  0  0  0  0  0  0  0  0  0
  143.8860  152.6470  133.5300 C   0  0  0  0  0  0  0  0  0  0  0  0
  143.0080  151.7590  133.0020 C   0  0  0  0  0  0  0  0  0  0  0  0
  143.1970  150.4540  132.6050 C   0  0  0  0  0  0  0  0  0  0  0  0
  142.1460  149.7220  132.1040 C   0  0  0  0  0  0  0  0  0  0  0  0
  140.9260  150.3510  132.0240 C   0  0  0  0  0  0  0  0  0  0  0  0
  139.7630  149.5810  131.4840 C   0  0  0  0  0  0  0  0  0  0  0  0
  140.1880  148.3270  131.0920 F   0  0  0  0  0  0  0  0  0  0  0  0
  139.3580  150.2490  130.3340 F   0  0  0  0  0  0  0  0  0  0  0  0
  138.7450  149.4990  132.4150 F   0  0  0  0  0  0  0  0  0  0  0  0
  140.7630  151.6580  132.4280 C   0  0  0  0  0  0  0  0  0  0  0  0
  141.7960  152.4150  132.9310 C   0  0  0  0  0  0  0  0  0  0  0  0
  139.5523  160.4903  133.3880 H   0  0  0  0  0  0  0  0  0  0  0  0
  140.6179  160.8263  131.9815 H   0  0  0  0  0  0  0  0  0  0  0  0
  139.5621  159.3730  131.9815 H   0  0  0  0  0  0  0  0  0  0  0  0
  141.7220  160.9673  134.3267 H   0  0  0  0  0  0  0  0  0  0  0  0
  142.1205  159.3768  135.0947 H   0  0  0  0  0  0  0  0  0  0  0  0
  143.4928  160.0803  132.5253 H   0  0  0  0  0  0  0  0  0  0  0  0
  143.9921  160.9435  134.0385 H   0  0  0  0  0  0  0  0  0  0  0  0
  143.8480  158.1060  133.7070 H   0  0  0  0  0  0  0  0  0  0  0  0
  139.4167  157.5364  133.4452 H   0  0  0  0  0  0  0  0  0  0  0  0
  140.0432  156.5284  132.1168 H   0  0  0  0  0  0  0  0  0  0  0  0
  140.1021  157.3488  135.4225 H   0  0  0  0  0  0  0  0  0  0  0  0
  140.0378  155.6127  136.0028 H   0  0  0  0  0  0  0  0  0  0  0  0
  143.2930  157.1050  134.6090 H   0  0  0  0  0  0  0  0  0  0  0  0
  144.1570  155.8190  136.4190 H   0  0  0  0  0  0  0  0  0  0  0  0
  145.0580  154.3140  136.2150 H   0  0  0  0  0  0  0  0  0  0  0  0
  144.9510  152.4529  133.7250 H   0  0  0  0  0  0  0  0  0  0  0  0
  144.1931  149.9950  132.6890 H   0  0  0  0  0  0  0  0  0  0  0  0
  142.2758  148.6785  131.7813 H   0  0  0  0  0  0  0  0  0  0  0  0
  139.7660  152.1152  132.3450 H   0  0  0  0  0  0  0  0  0  0  0  0
  1  2  1  0
  2  3  1  0
  3  4  1  0
  4  5  1  0
  2  6  1  0
  6  7  2  0
  6  8  1  0
  8  9  1  0
  9 10  1  0
 10 11  1  0
 11 12  2  0
 11 13  1  0
  9 14  1  0
 14 15  2  0
 14 16  1  0
 16 17  1  0
 17 18  1  0
 18 19  1  0
 18 20  2  0
 17 21  2  0
 21 22  1  0
 22 23  2  0
 23 24  1  0
 24 25  2  0
 25 26  1  0
 26 27  1  0
 26 28  1  0
 26 29  1  0
 25 30  1  0
 30 31  2  0
 31 16  1  0
 31 22  1  0
  1 32  1  0
  1 33  1  0
  1 34  1  0
  3 35  1  0
  3 36  1  0
  4 37  1  0
  4 38  1  0
  5 39  1  0
  8 40  1  0
  8 41  1  0
 10 42  1  0
 10 43  1  0
 13 44  1  0
 19 45  1  0
 19 46  1  0
 21 47  1  0
 23 48  1  0
 24 49  1  0
 30 50  1  0
M  END
>  <smiles>  (9) 
CN(CCO)C(=O)CN(CC(=O)O)C(=O)n1c(C(N)=O)cc2ccc(C(F)(F)F)cc21

>  <score_type>  (9) 
oracle

>  <origin>  (9) 
adg

>  <m_score__min__energy>  (9) 
-6.4199999999999999

>  <m_primary>  (9) 
energy

$$$$
9:0
     RDKit          3D

 40 41  0  0  0  0  0  0  0  0999 V2000
  147.1620  153.7270  133.3030 C   0  0  0  0  0  0  0  0  0  0  0  0
  146.8060  155.0510  133.1960 C   0  0  0  0  0  0  0  0  0  0  0  0
  147.8900  155.9590  133.4190 C   0  0  0  0  0  0  0  0  0  0  0  0
  148.0440  156.7820  134.3400 O   0  0  0  0  0  0  0  0  0  0  0  0
  148.9740  155.9620  132.4900 O   0  0  0  0  0  0  0  0  0  0  0  0
  145.4620  155.2320  132.7670 C   0  0  0  0  0  0  0  0  0  0  0  0
  145.1240  154.2880  131.8900 O   0  0  0  0  0  0  0  0  0  0  0  0
  144.4310  156.1260  133.0130 N   0  0  0  0  0  0  0  0  0  0  0  0
  143.1500  155.7390  133.2930 C   0  0  0  0  0  0  0  0  0  0  0  0
  142.4940  154.4480  133.1940 C   0  0  0  0  0  0  0  0  0  0  0  0
  142.9670  153.3210  132.4900 N   0  0  0  0  0  0  0  0  0  0  0  0
  141.3610  154.2510  133.7840 O   0  0  0  0  0  0  0  0  0  0  0  0
  142.4160  156.8750  133.6660 C   0  0  0  0  0  0  0  0  0  0  0  0
  143.2420  157.9510  133.6170 C   0  0  0  0  0  0  0  0  0  0  0  0
  143.0080  159.2670  133.9280 C   0  0  0  0  0  0  0  0  0  0  0  0
  144.0300  160.1850  133.8530 C   0  0  0  0  0  0  0  0  0  0  0  0
  145.2790  159.7650  133.4660 C   0  0  0  0  0  0  0  0  0  0  0  0
  146.3690  160.6640  133.3540 N   0  0  0  0  0  0  0  0  0  0  0  0
  147.7570  160.2830  133.3520 C   0  0  0  0  0  0  0  0  0  0  0  0
  148.2810  160.3050  131.9550 C   0  0  0  0  0  0  0  0  0  0  0  0
  148.9960  159.0230  131.6130 C   0  0  0  0  0  0  0  0  0  0  0  0
  148.8070  158.4320  130.5170 O   0  0  0  0  0  0  0  0  0  0  0  0
  149.8790  158.5040  132.5490 O   0  0  0  0  0  0  0  0  0  0  0  0
  145.4720  158.4370  133.1620 C   0  0  0  0  0  0  0  0  0  0  0  0
  144.4880  157.4770  133.2140 C   0  0  0  0  0  0  0  0  0  0  0  0
  146.4079  152.9407  133.1511 H   0  0  0  0  0  0  0  0  0  0  0  0
  148.2009  153.4543  133.5405 H   0  0  0  0  0  0  0  0  0  0  0  0
  149.0290  156.6870  131.7790 H   0  0  0  0  0  0  0  0  0  0  0  0
  143.2050  153.3400  131.4520 H   0  0  0  0  0  0  0  0  0  0  0  0
  143.1170  152.3710  132.9440 H   0  0  0  0  0  0  0  0  0  0  0  0
  141.3533  156.8910  133.9496 H   0  0  0  0  0  0  0  0  0  0  0  0
  142.0025  159.5881  134.2375 H   0  0  0  0  0  0  0  0  0  0  0  0
  143.8491  161.2416  134.0998 H   0  0  0  0  0  0  0  0  0  0  0  0
  146.1710  161.6990  133.2640 H   0  0  0  0  0  0  0  0  0  0  0  0
  148.3313  160.9894  133.9694 H   0  0  0  0  0  0  0  0  0  0  0  0
  147.8574  159.2678  133.7635 H   0  0  0  0  0  0  0  0  0  0  0  0
  147.4396  160.4414  131.2597 H   0  0  0  0  0  0  0  0  0  0  0  0
  148.9987  161.1341  131.8686 H   0  0  0  0  0  0  0  0  0  0  0  0
  149.6020  157.8470  133.2660 H   0  0  0  0  0  0  0  0  0  0  0  0
  146.4808  158.1218  132.8569 H   0  0  0  0  0  0  0  0  0  0  0  0
  1  2  2  0
  2  3  1  0
  3  4  2  0
  3  5  1  0
  2  6  1  0
  6  7  2  0
  6  8  1  0
  8  9  1  0
  9 10  1  0
 10 11  1  0
 10 12  2  0
  9 13  2  0
 13 14  1  0
 14 15  2  0
 15 16  1  0
 16 17  2  0
 17 18  1  0
 18 19  1  0
 19 20  1  0
 20 21  1  0
 21 22  2  0
 21 23  1  0
 17 24  1  0
 24 25  2  0
 25  8  1  0
 25 14  1  0
  1 26  1  0
  1 27  1  0
  5 28  1  0
 11 29  1  0
 11 30  1  0
 13 31  1  0
 15 32  1  0
 16 33  1  0
 18 34  1  0
 19 35  1  0
 19 36  1  0
 20 37  1  0
 20 38  1  0
 23 39  1  0
 24 40  1  0
M  END
>  <smiles>  (10) 
C=C(C(=O)O)C(=O)n1c(C(N)=O)cc2ccc(NCCC(=O)O)cc21

>  <score_type>  (10) 
oracle

>  <origin>  (10) 
adg

>  <m_score__min__energy>  (10) 
-7.5999999999999996

>  <m_primary>  (10) 
energy

$$$$
10:0
     RDKit          3D

 46 47  0  0  1  0  0  0  0  0999 V2000
  140.6360  155.4820  133.4180 C   0  0  0  0  0  0  0  0  0  0  0  0
  140.4240  156.9130  133.6040 N   0  0  0  0  0  0  0  0  0  0  0  0
  139.2550  157.5030  133.0220 C   0  0  0  0  0  0  0  0  0  0  0  0
  139.6200  158.4460  131.9060 C   0  0  2  0  0  0  0  0  0  0  0  0
  140.9910  158.5520  131.8060 O   0  0  0  0  0  0  0  0  0  0  0  0
  139.0780  159.8450  132.1760 C   0  0  0  0  0  0  0  0  0  0  0  0
  140.0700  160.5030  132.9280 O   0  0  0  0  0  0  0  0  0  0  0  0
  141.4190  157.6010  134.3480 C   0  0  0  0  0  0  0  0  0  0  0  0
  141.0730  158.7140  134.8430 O   0  0  0  0  0  0  0  0  0  0  0  0
  142.8100  157.0490  134.5400 C   0  0  0  0  0  0  0  0  0  0  0  0
  143.6270  157.3820  133.3270 C   0  0  0  0  0  0  0  0  0  0  0  0
  143.0910  156.9190  132.2620 O   0  0  0  0  0  0  0  0  0  0  0  0
  144.8200  158.0940  133.2970 N   0  0  0  0  0  0  0  0  0  0  0  0
  144.9160  159.4350  133.4110 C   0  0  0  0  0  0  0  0  0  0  0  0
  143.9590  160.5050  133.5100 C   0  0  0  0  0  0  0  0  0  0  0  0
  142.5560  160.4340  133.3370 N   0  0  0  0  0  0  0  0  0  0  0  0
  144.3750  161.6890  133.7870 O   0  0  0  0  0  0  0  0  0  0  0  0
  146.2990  159.7230  133.3630 C   0  0  0  0  0  0  0  0  0  0  0  0
  147.0110  158.5710  133.2230 C   0  0  0  0  0  0  0  0  0  0  0  0
  148.3640  158.3520  133.1330 C   0  0  0  0  0  0  0  0  0  0  0  0
  148.8530  157.0650  132.9970 C   0  0  0  0  0  0  0  0  0  0  0  0
  147.9420  156.0360  132.9560 C   0  0  0  0  0  0  0  0  0  0  0  0
  148.4540  154.6480  132.8210 C   0  0  0  0  0  0  0  0  0  0  0  0
  149.7470  154.6380  132.3100 F   0  0  0  0  0  0  0  0  0  0  0  0
  148.4550  153.9410  133.9960 F   0  0  0  0  0  0  0  0  0  0  0  0
  146.5900  156.2810  133.0470 C   0  0  0  0  0  0  0  0  0  0  0  0
  146.0660  157.5510  133.1830 C   0  0  0  0  0  0  0  0  0  0  0  0
  140.7087  154.9914  134.3999 H   0  0  0  0  0  0  0  0  0  0  0  0
  139.7912  155.0560  132.8569 H   0  0  0  0  0  0  0  0  0  0  0  0
  141.5681  155.3193  132.8569 H   0  0  0  0  0  0  0  0  0  0  0  0
  138.6116  156.7055  132.6221 H   0  0  0  0  0  0  0  0  0  0  0  0
  138.7272  158.0725  133.8011 H   0  0  0  0  0  0  0  0  0  0  0  0
  139.1856  158.0423  130.9795 H   0  0  0  0  0  0  0  0  0  0  0  0
  141.3520  158.8160  132.6890 H   0  0  0  0  0  0  0  0  0  0  0  0
  138.9000  160.3760  131.2292 H   0  0  0  0  0  0  0  0  0  0  0  0
  138.1190  159.8105  132.7138 H   0  0  0  0  0  0  0  0  0  0  0  0
  140.5910  159.8650  133.4950 H   0  0  0  0  0  0  0  0  0  0  0  0
  143.2687  157.5013  135.4317 H   0  0  0  0  0  0  0  0  0  0  0  0
  142.7666  155.9584  134.6768 H   0  0  0  0  0  0  0  0  0  0  0  0
  142.1580  160.3230  132.3500 H   0  0  0  0  0  0  0  0  0  0  0  0
  141.8820  160.4990  134.1490 H   0  0  0  0  0  0  0  0  0  0  0  0
  146.7360  160.7303  133.4291 H   0  0  0  0  0  0  0  0  0  0  0  0
  149.0608  159.2024  133.1692 H   0  0  0  0  0  0  0  0  0  0  0  0
  149.9334  156.8716  132.9242 H   0  0  0  0  0  0  0  0  0  0  0  0
  147.7545  154.1568  132.1286 H   0  0  0  0  0  0  0  0  0  0  0  0
  145.8972  155.4274  133.0097 H   0  0  0  0  0  0  0  0  0  0  0  0
  1  2  1  0
  2  3  1  0
  3  4  1  0
  4  5  1  0
  4  6  1  0
  6  7  1  0
  2  8  1  0
  8  9  2  0
  8 10  1  0
 10 11  1  0
 11 12  2  0
 11 13  1  0
 13 14  1  0
 14 15  1  0
 15 16  1  0
 15 17  2  0
 14 18  2  0
 18 19  1  0
 19 20  2  0
 20 21  1  0
 21 22  2  0
 22 23  1  0
 23 24  1  0
 23 25  1  0
 22 26  1  0
 26 27  2  0
 27 13  1  0
 27 19  1  0
  1 28  1  0
  1 29  1  0
  1 30  1  0
  3 31  1  0
  3 32  1  0
  4 33  1  6
  5 34  1  0
  6 35  1  0
  6 36  1  0
  7 37  1  0
 10 38  1  0
 10 39  1  0
 16 40  1  0
 16 41  1  0
 18 42  1  0
 20 43  1  0
 21 44  1  0
 23 45  1  0
 26 46  1  0
M  END
>  <smiles>  (11) 
CN(CC(O)CO)C(=O)CC(=O)n1c(C(N)=O)cc2ccc(C(F)F)cc21

>  <score_type>  (11) 
oracle

>  <origin>  (11) 
adg

>  <m_score__min__energy>  (11) 
-6.8700000000000001

>  <m_primary>  (11) 
energy

$$$$
11:0
     RDKit          3D

 47 48  0  0  0  0  0  0  0  0999 V2000
  146.1530  152.9390  132.6780 C   0  0  0  0  0  0  0  0  0  0  0  0
  147.2090  153.4530  133.5580 N   0  0  0  0  0  0  0  0  0  0  0  0
  148.5330  152.9290  133.3920 C   0  0  0  0  0  0  0  0  0  0  0  0
  149.3800  153.7220  132.4120 C   0  0  0  0  0  0  0  0  0  0  0  0
  149.2560  155.0800  132.5980 O   0  0  0  0  0  0  0  0  0  0  0  0
  146.8340  154.4250  134.4990 C   0  0  0  0  0  0  0  0  0  0  0  0
  147.7310  155.0440  135.1180 O   0  0  0  0  0  0  0  0  0  0  0  0
  145.4090  154.6890  134.7300 C   0  0  0  0  0  0  0  0  0  0  0  0
  144.8530  155.4890  133.5930 N   0  0  0  0  0  0  0  0  0  0  0  0
  143.5410  155.0930  133.1840 C   0  0  0  0  0  0  0  0  0  0  0  0
  145.6730  156.5360  133.1840 C   0  0  0  0  0  0  0  0  0  0  0  0
  146.6260  156.1160  132.3910 O   0  0  0  0  0  0  0  0  0  0  0  0
  145.6980  157.9100  133.4460 N   0  0  0  0  0  0  0  0  0  0  0  0
  146.6750  158.8220  133.4460 C   0  0  0  0  0  0  0  0  0  0  0  0
  148.1230  158.6580  133.5340 C   0  0  0  0  0  0  0  0  0  0  0  0
  148.8090  157.4280  133.4080 N   0  0  0  0  0  0  0  0  0  0  0  0
  148.8580  159.6790  133.7510 O   0  0  0  0  0  0  0  0  0  0  0  0
  146.1450  160.1210  133.5470 C   0  0  0  0  0  0  0  0  0  0  0  0
  144.7950  159.9780  133.6180 C   0  0  0  0  0  0  0  0  0  0  0  0
  143.8160  160.9460  133.7290 C   0  0  0  0  0  0  0  0  0  0  0  0
  142.4870  160.5910  133.7860 C   0  0  0  0  0  0  0  0  0  0  0  0
  142.1890  159.2470  133.7270 C   0  0  0  0  0  0  0  0  0  0  0  0
  140.7560  158.8410  133.7870 C   0  0  0  0  0  0  0  0  0  0  0  0
  140.3430  158.9670  135.0920 F   0  0  0  0  0  0  0  0  0  0  0  0
  139.9600  159.5870  132.9470 F   0  0  0  0  0  0  0  0  0  0  0  0
  143.1900  158.2820  133.6150 C   0  0  0  0  0  0  0  0  0  0  0  0
  144.5330  158.6350  133.5570 C   0  0  0  0  0  0  0  0  0  0  0  0
  145.3300  152.5384  133.2881 H   0  0  0  0  0  0  0  0  0  0  0  0
  145.7757  153.7542  132.0431 H   0  0  0  0  0  0  0  0  0  0  0  0
  146.5618  152.1391  132.0431 H   0  0  0  0  0  0  0  0  0  0  0  0
  149.0352  152.9353  134.3707 H   0  0  0  0  0  0  0  0  0  0  0  0
  148.4300  151.9133  132.9824 H   0  0  0  0  0  0  0  0  0  0  0  0
  150.4348  153.4408  132.5471 H   0  0  0  0  0  0  0  0  0  0  0  0
  149.0300  153.4870  131.3960 H   0  0  0  0  0  0  0  0  0  0  0  0
  148.4750  155.3700  133.1070 H   0  0  0  0  0  0  0  0  0  0  0  0
  144.8677  153.7343  134.8045 H   0  0  0  0  0  0  0  0  0  0  0  0
  145.2904  155.2549  135.6658 H   0  0  0  0  0  0  0  0  0  0  0  0
  142.9207  154.9058  134.0729 H   0  0  0  0  0  0  0  0  0  0  0  0
  143.0871  155.8942  132.5823 H   0  0  0  0  0  0  0  0  0  0  0  0
  143.6061  154.1745  132.5823 H   0  0  0  0  0  0  0  0  0  0  0  0
  148.2970  156.5760  133.7820 H   0  0  0  0  0  0  0  0  0  0  0  0
  149.7430  157.3340  132.9870 H   0  0  0  0  0  0  0  0  0  0  0  0
  146.7102  161.0645  133.5650 H   0  0  0  0  0  0  0  0  0  0  0  0
  144.1001  162.0078  133.7722 H   0  0  0  0  0  0  0  0  0  0  0  0
  141.6953  161.3495  133.8750 H   0  0  0  0  0  0  0  0  0  0  0  0
  140.6609  157.8004  133.4435 H   0  0  0  0  0  0  0  0  0  0  0  0
  142.9105  157.2190  133.5717 H   0  0  0  0  0  0  0  0  0  0  0  0
  1  2  1  0
  2  3  1  0
  3  4  1  0
  4  5  1  0
  2  6  1  0
  6  7  2  0
  6  8  1  0
  8  9  1  0
  9 10  1  0
  9 11  1  0
 11 12  2  0
 11 13  1  0
 13 14  1  0
 14 15  1  0
 15 16  1  0
 15 17  2  0
 14 18  2  0
 18 19  1  0
 19 20  2  0
 20 21  1  0
 21 22  2  0
 22 23  1  0
 23 24  1  0
 23 25  1  0
 22 26  1  0
 26 27  2  0
 27 13  1  0
 27 19  1  0
  1 28  1  0
  1 29  1  0
  1 30  1  0
  3 31  1  0
  3 32  1  0
  4 33  1  0
  4 34  1  0
  5 35  1  0
  8 36  1  0
  8 37  1  0
 10 38  1  0
 10 39  1  0
 10 40  1  0
 16 41  1  0
 16 42  1  0
 18 43  1  0
 20 44  1  0
 21 45  1  0
 23 46  1  0
 26 47  1  0
M  END
>  <smiles>  (12) 
CN(CCO)C(=O)CN(C)C(=O)n1c(C(N)=O)cc2ccc(C(F)F)cc21

>  <score_type>  (12) 
oracle

>  <origin>  (12) 
adg

>  <m_score__min__energy>  (12) 
-6.3300000000000001

>  <m_primary>  (12) 
energy

$$$$
12:0
     RDKit          3D

 47 49  0  0  0  0  0  0  0  0999 V2000
  148.8950  157.3820  132.7090 N   0  0  0  0  0  0  0  0  0  0  0  0
  148.1650  158.5610  132.8780 C   0  0  0  0  0  0  0  0  0  0  0  0
  148.8890  159.6250  132.7400 O   0  0  0  0  0  0  0  0  0  0  0  0
  146.7810  158.7910  133.1670 C   0  0  0  0  0  0  0  0  0  0  0  0
  146.3090  160.1210  133.2920 C   0  0  0  0  0  0  0  0  0  0  0  0
  144.9810  160.0880  133.5890 C   0  0  0  0  0  0  0  0  0  0  0  0
  144.0940  161.1110  133.8000 C   0  0  0  0  0  0  0  0  0  0  0  0
  142.7780  160.8520  134.0880 C   0  0  0  0  0  0  0  0  0  0  0  0
  142.3890  159.5420  134.1560 C   0  0  0  0  0  0  0  0  0  0  0  0
  140.9710  159.2530  134.4660 C   0  0  0  0  0  0  0  0  0  0  0  0
  140.1470  159.8480  133.5100 F   0  0  0  0  0  0  0  0  0  0  0  0
  140.5890  159.7480  135.6870 F   0  0  0  0  0  0  0  0  0  0  0  0
  140.6980  157.9030  134.4160 F   0  0  0  0  0  0  0  0  0  0  0  0
  143.3020  158.5120  133.9380 C   0  0  0  0  0  0  0  0  0  0  0  0
  144.6340  158.7540  133.6470 C   0  0  0  0  0  0  0  0  0  0  0  0
  145.7320  157.9730  133.3910 N   0  0  0  0  0  0  0  0  0  0  0  0
  145.6480  156.5680  133.4280 C   0  0  0  0  0  0  0  0  0  0  0  0
  144.5730  156.0830  132.8850 O   0  0  0  0  0  0  0  0  0  0  0  0
  146.5380  155.5610  133.9610 C   0  0  0  0  0  0  0  0  0  0  0  0
  147.1870  154.6940  132.8910 C   0  0  0  0  0  0  0  0  0  0  0  0
  147.1900  155.2730  131.6390 O   0  0  0  0  0  0  0  0  0  0  0  0
  148.6180  154.4640  133.3100 C   0  0  0  0  0  0  0  0  0  0  0  0
  149.2800  153.4130  132.4150 C   0  0  0  0  0  0  0  0  0  0  0  0
  148.5210  152.1980  132.6510 N   0  0  0  0  0  0  0  0  0  0  0  0
  149.1890  151.0510  133.1390 C   0  0  0  0  0  0  0  0  0  0  0  0
  150.4260  151.1160  133.3570 O   0  0  0  0  0  0  0  0  0  0  0  0
  148.5270  149.8630  133.3850 O   0  0  0  0  0  0  0  0  0  0  0  0
  147.1060  152.2170  132.3730 C   0  0  0  0  0  0  0  0  0  0  0  0
  146.3840  153.4240  132.8430 C   0  0  0  0  0  0  0  0  0  0  0  0
  149.6060  156.9790  133.3320 H   0  0  0  0  0  0  0  0  0  0  0  0
  148.7040  156.8260  131.8230 H   0  0  0  0  0  0  0  0  0  0  0  0
  146.9157  161.0303  133.1693 H   0  0  0  0  0  0  0  0  0  0  0  0
  144.4415  162.1528  133.7377 H   0  0  0  0  0  0  0  0  0  0  0  0
  142.0609  161.6686  134.2582 H   0  0  0  0  0  0  0  0  0  0  0  0
  142.9525  157.4708  133.9992 H   0  0  0  0  0  0  0  0  0  0  0  0
  147.3332  156.0653  134.5296 H   0  0  0  0  0  0  0  0  0  0  0  0
  145.9310  154.8950  134.5918 H   0  0  0  0  0  0  0  0  0  0  0  0
  146.2880  155.6800  131.4960 H   0  0  0  0  0  0  0  0  0  0  0  0
  149.1745  155.4094  133.2296 H   0  0  0  0  0  0  0  0  0  0  0  0
  148.6293  154.1026  134.3489 H   0  0  0  0  0  0  0  0  0  0  0  0
  149.2186  153.7096  131.3575 H   0  0  0  0  0  0  0  0  0  0  0  0
  150.3490  153.2868  132.6415 H   0  0  0  0  0  0  0  0  0  0  0  0
  148.0590  149.6670  134.2710 H   0  0  0  0  0  0  0  0  0  0  0  0
  146.9727  152.1440  131.2836 H   0  0  0  0  0  0  0  0  0  0  0  0
  146.6757  151.3700  132.9274 H   0  0  0  0  0  0  0  0  0  0  0  0
  145.5311  153.5902  132.1685 H   0  0  0  0  0  0  0  0  0  0  0  0
  146.0992  153.2131  133.8844 H   0  0  0  0  0  0  0  0  0  0  0  0
  1  2  1  0
  2  3  2  0
  2  4  1  0
  4  5  2  0
  5  6  1  0
  6  7  2  0
  7  8  1  0
  8  9  2  0
  9 10  1  0
 10 11  1  0
 10 12  1  0
 10 13  1  0
  9 14  1  0
 14 15  2  0
 15 16  1  0
 16 17  1  0
 17 18  2  0
 17 19  1  0
 19 20  1  0
 20 21  1  0
 20 22  1  0
 22 23  1  0
 23 24  1  0
 24 25  1  0
 25 26  2  0
 25 27  1  0
 24 28  1  0
 28 29  1  0
 16  4  1  0
 29 20  1  0
 15  6  1  0
  1 30  1  0
  1 31  1  0
  5 32  1  0
  7 33  1  0
  8 34  1  0
 14 35  1  0
 19 36  1  0
 19 37  1  0
 21 38  1  0
 22 39  1  0
 22 40  1  0
 23 41  1  0
 23 42  1  0
 27 43  1  0
 28 44  1  0
 28 45  1  0
 29 46  1  0
 29 47  1  0
M  END
>  <smiles>  (13) 
NC(=O)c1cc2ccc(C(F)(F)F)cc2n1C(=O)CC1(O)CCN(C(=O)O)CC1

>  <score_type>  (13) 
oracle

>  <origin>  (13) 
adg

>  <m_score__min__energy>  (13) 
-8.4100000000000001

>  <m_primary>  (13) 
energy

$$$$
13:0
     RDKit          3D

 46 47  0  0  0  0  0  0  0  0999 V2000
  141.9770  158.5320  134.3330 C   0  0  0  0  0  0  0  0  0  0  0  0
  141.8720  157.2290  134.9730 N   0  0  0  0  0  0  0  0  0  0  0  0
  141.1910  157.0950  136.2380 C   0  0  0  0  0  0  0  0  0  0  0  0
  142.4220  156.0650  134.3900 C   0  0  0  0  0  0  0  0  0  0  0  0
  142.3550  154.9220  134.9080 O   0  0  0  0  0  0  0  0  0  0  0  0
  143.1470  156.1630  133.0570 C   0  0  0  0  0  0  0  0  0  0  0  0
  144.2520  155.2650  133.0300 N   0  0  0  0  0  0  0  0  0  0  0  0
  144.0490  154.1240  132.0510 C   0  0  0  0  0  0  0  0  0  0  0  0
  144.5110  152.8910  132.7260 C   0  0  0  0  0  0  0  0  0  0  0  0
  145.2180  152.0970  132.0720 O   0  0  0  0  0  0  0  0  0  0  0  0
  144.1980  152.5800  134.0490 O   0  0  0  0  0  0  0  0  0  0  0  0
  145.4620  155.2150  133.7090 C   0  0  0  0  0  0  0  0  0  0  0  0
  145.3600  154.6410  134.8950 O   0  0  0  0  0  0  0  0  0  0  0  0
  146.7680  155.6460  133.4340 N   0  0  0  0  0  0  0  0  0  0  0  0
  147.8820  155.0510  133.0160 C   0  0  0  0  0  0  0  0  0  0  0  0
  148.2510  153.6190  133.1140 C   0  0  0  0  0  0  0  0  0  0  0  0
  147.2450  152.6140  133.3490 N   0  0  0  0  0  0  0  0  0  0  0  0
  149.4170  153.2240  133.0100 O   0  0  0  0  0  0  0  0  0  0  0  0
  148.8570  155.9540  132.6320 C   0  0  0  0  0  0  0  0  0  0  0  0
  148.3160  157.1870  132.8310 C   0  0  0  0  0  0  0  0  0  0  0  0
  148.8720  158.4310  132.6080 C   0  0  0  0  0  0  0  0  0  0  0  0
  148.1430  159.5630  132.8790 C   0  0  0  0  0  0  0  0  0  0  0  0
  146.8680  159.4110  133.3700 C   0  0  0  0  0  0  0  0  0  0  0  0
  146.0870  160.6360  133.6600 C   0  0  0  0  0  0  0  0  0  0  0  0
  144.7400  160.3410  133.7560 F   0  0  0  0  0  0  0  0  0  0  0  0
  146.3250  158.1410  133.5890 C   0  0  0  0  0  0  0  0  0  0  0  0
  147.0510  156.9890  133.3200 C   0  0  0  0  0  0  0  0  0  0  0  0
  142.0401  159.3148  135.1032 H   0  0  0  0  0  0  0  0  0  0  0  0
  142.8804  158.5608  133.7060 H   0  0  0  0  0  0  0  0  0  0  0  0
  141.0899  158.7051  133.7060 H   0  0  0  0  0  0  0  0  0  0  0  0
  141.9101  157.2365  137.0583 H   0  0  0  0  0  0  0  0  0  0  0  0
  140.3985  157.8544  136.3100 H   0  0  0  0  0  0  0  0  0  0  0  0
  140.7453  156.0919  136.3100 H   0  0  0  0  0  0  0  0  0  0  0  0
  142.4506  155.9065  132.2451 H   0  0  0  0  0  0  0  0  0  0  0  0
  143.5167  157.1905  132.9246 H   0  0  0  0  0  0  0  0  0  0  0  0
  142.9844  154.0355  131.7888 H   0  0  0  0  0  0  0  0  0  0  0  0
  144.6109  154.2981  131.1215 H   0  0  0  0  0  0  0  0  0  0  0  0
  143.7490  153.2540  134.6580 H   0  0  0  0  0  0  0  0  0  0  0  0
  146.4300  152.8270  133.9970 H   0  0  0  0  0  0  0  0  0  0  0  0
  147.3130  151.6650  132.8800 H   0  0  0  0  0  0  0  0  0  0  0  0
  149.8609  155.7235  132.2460 H   0  0  0  0  0  0  0  0  0  0  0  0
  149.8957  158.5152  132.2145 H   0  0  0  0  0  0  0  0  0  0  0  0
  148.5675  160.5633  132.7080 H   0  0  0  0  0  0  0  0  0  0  0  0
  146.4315  161.0680  134.6112 H   0  0  0  0  0  0  0  0  0  0  0  0
  146.2359  161.3546  132.8406 H   0  0  0  0  0  0  0  0  0  0  0  0
  145.3016  158.0532  133.9825 H   0  0  0  0  0  0  0  0  0  0  0  0
  1  2  1  0
  2  3  1  0
  2  4  1  0
  4  5  2  0
  4  6  1  0
  6  7  1  0
  7  8  1  0
  8  9  1  0
  9 10  2  0
  9 11  1  0
  7 12  1  0
 12 13  2  0
 12 14  1  0
 14 15  1  0
 15 16  1  0
 16 17  1  0
 16 18  2  0
 15 19  2  0
 19 20  1  0
 20 21  2  0
 21 22  1  0
 22 23  2  0
 23 24  1  0
 24 25  1  0
 23 26  1  0
 26 27  2  0
 27 14  1  0
 27 20  1  0
  1 28  1  0
  1 29  1  0
  1 30  1  0
  3 31  1  0
  3 32  1  0
  3 33  1  0
  6 34  1  0
  6 35  1  0
  8 36  1  0
  8 37  1  0
 11 38  1  0
 17 39  1  0
 17 40  1  0
 19 41  1  0
 21 42  1  0
 22 43  1  0
 24 44  1  0
 24 45  1  0
 26 46  1  0
M  END
>  <smiles>  (14) 
CN(C)C(=O)CN(CC(=O)O)C(=O)n1c(C(N)=O)cc2ccc(CF)cc21

>  <score_type>  (14) 
oracle

>  <origin>  (14) 
adg

>  <m_score__min__energy>  (14) 
-5.6200000000000001

>  <m_primary>  (14) 
energy

$$$$
15:0
     RDKit          3D

 42 43  0  0  0  0  0  0  0  0999 V2000
  143.2410  156.1260  135.2510 C   0  0  0  0  0  0  0  0  0  0  0  0
  142.9600  157.4060  134.6610 N   0  0  0  0  0  0  0  0  0  0  0  0
  141.9010  158.1670  135.2630 C   0  0  0  0  0  0  0  0  0  0  0  0
  142.3060  158.9690  136.1960 O   0  0  0  0  0  0  0  0  0  0  0  0
  140.5510  158.1670  135.0000 N   0  0  0  0  0  0  0  0  0  0  0  0
  139.4250  158.2140  135.9000 C   0  0  0  0  0  0  0  0  0  0  0  0
  140.0810  158.0840  133.2650 P   0  0  0  0  0  0  0  0  0  0  0  0
  138.5900  158.2470  133.2030 O   0  0  0  0  0  0  0  0  0  0  0  0
  140.8950  159.2340  132.3680 O   0  0  0  0  0  0  0  0  0  0  0  0
  140.4750  156.5530  132.6750 O   0  0  0  0  0  0  0  0  0  0  0  0
  143.6360  157.9830  133.5670 C   0  0  0  0  0  0  0  0  0  0  0  0
  143.1780  157.5810  132.4130 O   0  0  0  0  0  0  0  0  0  0  0  0
  144.6990  158.8850  133.4790 N   0  0  0  0  0  0  0  0  0  0  0  0
  144.8490  160.1850  133.7040 C   0  0  0  0  0  0  0  0  0  0  0  0
  143.8230  161.2540  133.7310 C   0  0  0  0  0  0  0  0  0  0  0  0
  142.4290  160.8880  133.7970 N   0  0  0  0  0  0  0  0  0  0  0  0
  144.0740  162.4590  133.6990 O   0  0  0  0  0  0  0  0  0  0  0  0
  146.1900  160.5700  133.7220 C   0  0  0  0  0  0  0  0  0  0  0  0
  146.8960  159.4330  133.4840 C   0  0  0  0  0  0  0  0  0  0  0  0
  148.2700  159.2650  133.3980 C   0  0  0  0  0  0  0  0  0  0  0  0
  148.7890  158.0180  133.1500 C   0  0  0  0  0  0  0  0  0  0  0  0
  147.9080  156.9730  132.9970 C   0  0  0  0  0  0  0  0  0  0  0  0
  148.4620  155.6070  132.7260 C   0  0  0  0  0  0  0  0  0  0  0  0
  149.7440  155.7140  132.2730 F   0  0  0  0  0  0  0  0  0  0  0  0
  147.6700  154.8750  131.8760 F   0  0  0  0  0  0  0  0  0  0  0  0
  148.4620  154.9720  133.9600 F   0  0  0  0  0  0  0  0  0  0  0  0
  146.5230  157.1590  133.0870 C   0  0  0  0  0  0  0  0  0  0  0  0
  145.9930  158.4190  133.3370 C   0  0  0  0  0  0  0  0  0  0  0  0
  143.2214  156.2153  136.3472 H   0  0  0  0  0  0  0  0  0  0  0  0
  142.4811  155.3989  134.9287 H   0  0  0  0  0  0  0  0  0  0  0  0
  144.2356  155.7841  134.9287 H   0  0  0  0  0  0  0  0  0  0  0  0
  139.7853  158.1990  136.9392 H   0  0  0  0  0  0  0  0  0  0  0  0
  138.8529  159.1368  135.7236 H   0  0  0  0  0  0  0  0  0  0  0  0
  138.7780  157.3421  135.7236 H   0  0  0  0  0  0  0  0  0  0  0  0
  141.6880  158.8990  131.9050 H   0  0  0  0  0  0  0  0  0  0  0  0
  141.3640  156.5880  132.2160 H   0  0  0  0  0  0  0  0  0  0  0  0
  141.8190  161.0340  132.9580 H   0  0  0  0  0  0  0  0  0  0  0  0
  142.0930  160.4870  134.7000 H   0  0  0  0  0  0  0  0  0  0  0  0
  146.5911  161.5800  133.8927 H   0  0  0  0  0  0  0  0  0  0  0  0
  148.9411  160.1268  133.5279 H   0  0  0  0  0  0  0  0  0  0  0  0
  149.8751  157.8599  133.0760 H   0  0  0  0  0  0  0  0  0  0  0  0
  145.8483  156.2997  132.9586 H   0  0  0  0  0  0  0  0  0  0  0  0
  1  2  1  0
  2  3  1  0
  3  4  2  0
  3  5  1  0
  5  6  1  0
  5  7  1  0
  7  8  2  0
  7  9  1  0
  7 10  1  0
  2 11  1  0
 11 12  2  0
 11 13  1  0
 13 14  1  0
 14 15  1  0
 15 16  1  0
 15 17  2  0
 14 18  2  0
 18 19  1  0
 19 20  2  0
 20 21  1  0
 21 22  2  0
 22 23  1  0
 23 24  1  0
 23 25  1  0
 23 26  1  0
 22 27  1  0
 27 28  2  0
 28 13  1  0
 28 19  1  0
  1 29  1  0
  1 30  1  0
  1 31  1  0
  6 32  1  0
  6 33  1  0
  6 34  1  0
  9 35  1  0
 10 36  1  0
 16 37  1  0
 16 38  1  0
 18 39  1  0
 20 40  1  0
 21 41  1  0
 27 42  1  0
M  END
>  <smiles>  (15) 
CN(C(=O)N(C)P(=O)(O)O)C(=O)n1c(C(N)=O)cc2ccc(C(F)(F)F)cc21

>  <score_type>  (15) 
oracle

>  <origin>  (15) 
adg

>  <m_score__min__energy>  (15) 
-7.21

>  <m_primary>  (15) 
energy

$$$$
16:0
     RDKit          3D

 42 43  0  0  0  0  0  0  0  0999 V2000
  144.6810  155.0550  134.4210 C   0  0  0  0  0  0  0  0  0  0  0  0
  146.0240  155.4750  134.1510 N   0  0  0  0  0  0  0  0  0  0  0  0
  146.6590  156.6900  134.2910 C   0  0  0  0  0  0  0  0  0  0  0  0
  147.6580  156.6650  135.1470 O   0  0  0  0  0  0  0  0  0  0  0  0
  146.4730  157.9560  133.7040 N   0  0  0  0  0  0  0  0  0  0  0  0
  147.3080  158.8370  133.1460 C   0  0  0  0  0  0  0  0  0  0  0  0
  148.6540  158.6460  132.6010 C   0  0  0  0  0  0  0  0  0  0  0  0
  149.2080  157.3080  132.5550 N   0  0  0  0  0  0  0  0  0  0  0  0
  149.3880  159.5410  132.1610 O   0  0  0  0  0  0  0  0  0  0  0  0
  146.6740  160.0640  132.9230 C   0  0  0  0  0  0  0  0  0  0  0  0
  145.3940  159.9110  133.3610 C   0  0  0  0  0  0  0  0  0  0  0  0
  144.3620  160.8280  133.3610 C   0  0  0  0  0  0  0  0  0  0  0  0
  143.1280  160.4780  133.8550 C   0  0  0  0  0  0  0  0  0  0  0  0
  142.9830  159.1970  134.3360 C   0  0  0  0  0  0  0  0  0  0  0  0
  141.6540  158.7930  134.8760 C   0  0  0  0  0  0  0  0  0  0  0  0
  141.5320  159.3180  136.1470 F   0  0  0  0  0  0  0  0  0  0  0  0
  140.6590  159.3900  134.1230 F   0  0  0  0  0  0  0  0  0  0  0  0
  144.0320  158.2780  134.3300 C   0  0  0  0  0  0  0  0  0  0  0  0
  145.2920  158.6290  133.8290 C   0  0  0  0  0  0  0  0  0  0  0  0
  146.8820  154.3610  133.6100 C   0  0  0  0  0  0  0  0  0  0  0  0
  146.0680  153.3650  132.8560 C   0  0  0  0  0  0  0  0  0  0  0  0
  147.6170  153.7450  134.7590 C   0  0  0  0  0  0  0  0  0  0  0  0
  147.8440  154.9440  132.6170 C   0  0  0  0  0  0  0  0  0  0  0  0
  149.0900  154.8130  132.7260 O   0  0  0  0  0  0  0  0  0  0  0  0
  147.2850  155.6400  131.5620 O   0  0  0  0  0  0  0  0  0  0  0  0
  144.5238  155.0058  135.5086 H   0  0  0  0  0  0  0  0  0  0  0  0
  143.9760  155.7755  133.9808 H   0  0  0  0  0  0  0  0  0  0  0  0
  144.5121  154.0611  133.9808 H   0  0  0  0  0  0  0  0  0  0  0  0
  149.2100  156.7490  131.6750 H   0  0  0  0  0  0  0  0  0  0  0  0
  149.5920  156.9730  133.4650 H   0  0  0  0  0  0  0  0  0  0  0  0
  147.1192  160.9686  132.4832 H   0  0  0  0  0  0  0  0  0  0  0  0
  144.5276  161.8408  132.9649 H   0  0  0  0  0  0  0  0  0  0  0  0
  142.2914  161.1921  133.8654 H   0  0  0  0  0  0  0  0  0  0  0  0
  141.5689  157.6964  134.8619 H   0  0  0  0  0  0  0  0  0  0  0  0
  143.8677  157.2642  134.7239 H   0  0  0  0  0  0  0  0  0  0  0  0
  145.5359  152.7140  133.5653 H   0  0  0  0  0  0  0  0  0  0  0  0
  145.3383  153.8915  132.2232 H   0  0  0  0  0  0  0  0  0  0  0  0
  146.7292  152.7547  132.2232 H   0  0  0  0  0  0  0  0  0  0  0  0
  147.1868  154.1055  135.7050 H   0  0  0  0  0  0  0  0  0  0  0  0
  147.5253  152.6500  134.7082 H   0  0  0  0  0  0  0  0  0  0  0  0
  148.6791  154.0267  134.7082 H   0  0  0  0  0  0  0  0  0  0  0  0
  147.3440  155.3070  130.5910 H   0  0  0  0  0  0  0  0  0  0  0  0
  1  2  1  0
  2  3  1  0
  3  4  2  0
  3  5  1  0
  5  6  1  0
  6  7  1  0
  7  8  1  0
  7  9  2  0
  6 10  2  0
 10 11  1  0
 11 12  2  0
 12 13  1  0
 13 14  2  0
 14 15  1  0
 15 16  1  0
 15 17  1  0
 14 18  1  0
 18 19  2  0
  2 20  1  0
 20 21  1  0
 20 22  1  0
 20 23  1  0
 23 24  2  0
 23 25  1  0
 19  5  1  0
 19 11  1  0
  1 26  1  0
  1 27  1  0
  1 28  1  0
  8 29  1  0
  8 30  1  0
 10 31  1  0
 12 32  1  0
 13 33  1  0
 15 34  1  0
 18 35  1  0
 21 36  1  0
 21 37  1  0
 21 38  1  0
 22 39  1  0
 22 40  1  0
 22 41  1  0
 25 42  1  0
M  END
>  <smiles>  (16) 
CN(C(=O)n1c(C(N)=O)cc2ccc(C(F)F)cc21)C(C)(C)C(=O)O

>  <score_type>  (16) 
oracle

>  <origin>  (16) 
adg

>  <m_score__min__energy>  (16) 
-6.5199999999999996

>  <m_primary>  (16) 
energy

$$$$
17:0
     RDKit          3D

 37 38  0  0  1  0  0  0  0  0999 V2000
  146.2380  162.5660  134.1070 N   0  0  0  0  0  0  0  0  0  0  0  0
  145.3870  161.4250  133.8450 C   0  0  0  0  0  0  0  0  0  0  0  0
  144.1630  161.6820  133.8590 O   0  0  0  0  0  0  0  0  0  0  0  0
  145.9870  160.1320  133.5970 C   0  0  0  0  0  0  0  0  0  0  0  0
  147.3690  159.9790  133.4280 C   0  0  0  0  0  0  0  0  0  0  0  0
  147.6580  158.6530  133.2080 C   0  0  0  0  0  0  0  0  0  0  0  0
  148.8570  158.0080  132.9880 C   0  0  0  0  0  0  0  0  0  0  0  0
  148.8520  156.6440  132.7940 C   0  0  0  0  0  0  0  0  0  0  0  0
  147.6630  155.9480  132.8210 C   0  0  0  0  0  0  0  0  0  0  0  0
  147.6930  154.4780  132.6090 C   0  0  0  0  0  0  0  0  0  0  0  0
  149.0060  154.0940  132.4220 F   0  0  0  0  0  0  0  0  0  0  0  0
  147.2550  153.8320  133.7680 F   0  0  0  0  0  0  0  0  0  0  0  0
  146.4670  156.6370  133.0470 C   0  0  0  0  0  0  0  0  0  0  0  0
  146.4420  158.0050  133.2450 C   0  0  0  0  0  0  0  0  0  0  0  0
  145.4450  158.9110  133.4800 N   0  0  0  0  0  0  0  0  0  0  0  0
  144.0770  158.5870  133.5790 C   0  0  0  0  0  0  0  0  0  0  0  0
  143.4380  157.8770  132.7650 O   0  0  0  0  0  0  0  0  0  0  0  0
  143.3420  159.0750  134.6540 O   0  0  0  0  0  0  0  0  0  0  0  0
  141.9800  158.8140  134.8280 C   0  0  0  0  0  0  0  0  0  0  0  0
  141.0910  159.6280  133.9280 C   0  0  1  0  0  0  0  0  0  0  0  0
  141.8820  160.4080  133.0480 O   0  0  0  0  0  0  0  0  0  0  0  0
  140.2690  158.7330  133.0080 C   0  0  0  0  0  0  0  0  0  0  0  0
  140.7900  158.7200  131.7260 O   0  0  0  0  0  0  0  0  0  0  0  0
  146.9460  162.5410  134.8830 H   0  0  0  0  0  0  0  0  0  0  0  0
  146.1100  163.4010  133.4900 H   0  0  0  0  0  0  0  0  0  0  0  0
  148.1080  160.7930  133.4655 H   0  0  0  0  0  0  0  0  0  0  0  0
  149.8008  158.5727  132.9678 H   0  0  0  0  0  0  0  0  0  0  0  0
  149.7975  156.1103  132.6175 H   0  0  0  0  0  0  0  0  0  0  0  0
  147.0579  154.2217  131.7482 H   0  0  0  0  0  0  0  0  0  0  0  0
  145.5213  156.0756  133.0677 H   0  0  0  0  0  0  0  0  0  0  0  0
  141.8011  157.7483  134.6222 H   0  0  0  0  0  0  0  0  0  0  0  0
  141.7287  159.0881  135.8632 H   0  0  0  0  0  0  0  0  0  0  0  0
  140.4509  160.2347  134.5854 H   0  0  0  0  0  0  0  0  0  0  0  0
  142.5190  159.8250  132.5990 H   0  0  0  0  0  0  0  0  0  0  0  0
  140.2728  157.7080  133.4073 H   0  0  0  0  0  0  0  0  0  0  0  0
  139.2433  159.1280  132.9632 H   0  0  0  0  0  0  0  0  0  0  0  0
  141.7600  158.6970  131.7910 H   0  0  0  0  0  0  0  0  0  0  0  0
  1  2  1  0
  2  3  2  0
  2  4  1  0
  4  5  2  0
  5  6  1  0
  6  7  2  0
  7  8  1  0
  8  9  2  0
  9 10  1  0
 10 11  1  0
 10 12  1  0
  9 13  1  0
 13 14  2  0
 14 15  1  0
 15 16  1  0
 16 17  2  0
 16 18  1  0
 18 19  1  0
 19 20  1  0
 20 21  1  0
 20 22  1  0
 22 23  1  0
 15  4  1  0
 14  6  1  0
  1 24  1  0
  1 25  1  0
  5 26  1  0
  7 27  1  0
  8 28  1  0
 10 29  1  0
 13 30  1  0
 19 31  1  0
 19 32  1  0
 20 33  1  1
 21 34  1  0
 22 35  1  0
 22 36  1  0
 23 37  1  0
M  END
>  <smiles>  (17) 
NC(=O)c1cc2ccc(C(F)F)cc2n1C(=O)OCC(O)CO

>  <score_type>  (17) 
oracle

>  <origin>  (17) 
adg

>  <m_score__min__energy>  (17) 
-6.1200000000000001

>  <m_primary>  (17) 
energy

$$$$
18:0
     RDKit          3D

 47 48  0  0  1  0  0  0  0  0999 V2000
  138.9320  160.1440  130.6710 C   0  0  0  0  0  0  0  0  0  0  0  0
  138.0250  159.0100  131.0860 C   0  0  0  0  0  0  0  0  0  0  0  0
  138.7330  157.8010  131.2890 O   0  0  0  0  0  0  0  0  0  0  0  0
  139.2300  157.4250  132.5290 C   0  0  0  0  0  0  0  0  0  0  0  0
  139.7090  156.2480  132.6220 O   0  0  0  0  0  0  0  0  0  0  0  0
  139.2480  158.2640  133.7230 C   0  0  1  0  0  0  0  0  0  0  0  0
  139.6660  157.4600  134.9700 C   0  0  0  0  0  0  0  0  0  0  0  0
  140.1360  159.3550  133.6920 O   0  0  0  0  0  0  0  0  0  0  0  0
  141.4020  159.3050  133.1450 C   0  0  0  0  0  0  0  0  0  0  0  0
  141.7110  158.3170  132.3960 O   0  0  0  0  0  0  0  0  0  0  0  0
  142.4510  160.3200  133.3540 C   0  0  0  0  0  0  0  0  0  0  0  0
  143.6660  159.8180  133.9620 C   0  0  0  0  0  0  0  0  0  0  0  0
  144.1410  160.5760  134.9020 O   0  0  0  0  0  0  0  0  0  0  0  0
  144.4050  158.6530  133.7050 N   0  0  0  0  0  0  0  0  0  0  0  0
  144.0950  157.3440  133.9430 C   0  0  0  0  0  0  0  0  0  0  0  0
  142.9060  156.7220  134.4270 C   0  0  0  0  0  0  0  0  0  0  0  0
  142.1200  155.9380  133.4690 N   0  0  0  0  0  0  0  0  0  0  0  0
  142.3970  156.7230  135.5590 O   0  0  0  0  0  0  0  0  0  0  0  0
  145.2090  156.5630  133.5480 C   0  0  0  0  0  0  0  0  0  0  0  0
  146.1720  157.4040  133.0760 C   0  0  0  0  0  0  0  0  0  0  0  0
  147.4230  157.1250  132.5760 C   0  0  0  0  0  0  0  0  0  0  0  0
  148.2440  158.1400  132.1440 C   0  0  0  0  0  0  0  0  0  0  0  0
  147.7830  159.4180  132.2270 C   0  0  0  0  0  0  0  0  0  0  0  0
  148.6560  160.5480  131.7570 C   0  0  0  0  0  0  0  0  0  0  0  0
  149.3280  160.1160  130.5300 C   0  0  0  0  0  0  0  0  0  0  0  0
  149.8710  159.7760  129.5810 N   0  0  0  0  0  0  0  0  0  0  0  0
  146.5150  159.6870  132.7350 C   0  0  0  0  0  0  0  0  0  0  0  0
  145.6730  158.6680  133.1760 C   0  0  0  0  0  0  0  0  0  0  0  0
  139.3302  160.6419  131.5674 H   0  0  0  0  0  0  0  0  0  0  0  0
  139.7646  159.7470  130.0717 H   0  0  0  0  0  0  0  0  0  0  0  0
  138.3618  160.8690  130.0717 H   0  0  0  0  0  0  0  0  0  0  0  0
  137.5204  159.2859  132.0237 H   0  0  0  0  0  0  0  0  0  0  0  0
  137.3019  158.8436  130.2739 H   0  0  0  0  0  0  0  0  0  0  0  0
  138.2139  158.6371  133.7593 H   0  0  0  0  0  0  0  0  0  0  0  0
  139.3784  158.0131  135.8763 H   0  0  0  0  0  0  0  0  0  0  0  0
  139.1620  156.4823  134.9618 H   0  0  0  0  0  0  0  0  0  0  0  0
  140.7558  157.3109  134.9618 H   0  0  0  0  0  0  0  0  0  0  0  0
  142.7102  160.7514  132.3759 H   0  0  0  0  0  0  0  0  0  0  0  0
  142.0343  161.0578  134.0555 H   0  0  0  0  0  0  0  0  0  0  0  0
  141.9060  156.3460  132.5200 H   0  0  0  0  0  0  0  0  0  0  0  0
  141.7870  154.9830  133.7510 H   0  0  0  0  0  0  0  0  0  0  0  0
  145.2838  155.4674  133.6113 H   0  0  0  0  0  0  0  0  0  0  0  0
  147.7690  156.0823  132.5214 H   0  0  0  0  0  0  0  0  0  0  0  0
  149.2453  157.9251  131.7425 H   0  0  0  0  0  0  0  0  0  0  0  0
  148.0402  161.4364  131.5531 H   0  0  0  0  0  0  0  0  0  0  0  0
  149.3959  160.8076  132.5285 H   0  0  0  0  0  0  0  0  0  0  0  0
  146.1692  160.7298  132.7896 H   0  0  0  0  0  0  0  0  0  0  0  0
  1  2  1  0
  2  3  1  0
  3  4  1  0
  4  5  2  0
  4  6  1  0
  6  7  1  0
  6  8  1  0
  8  9  1  0
  9 10  2  0
  9 11  1  0
 11 12  1  0
 12 13  2  0
 12 14  1  0
 14 15  1  0
 15 16  1  0
 16 17  1  0
 16 18  2  0
 15 19  2  0
 19 20  1  0
 20 21  2  0
 21 22  1  0
 22 23  2  0
 23 24  1  0
 24 25  1  0
 25 26  3  0
 23 27  1  0
 27 28  2  0
 28 14  1  0
 28 20  1  0
  1 29  1  0
  1 30  1  0
  1 31  1  0
  2 32  1  0
  2 33  1  0
  6 34  1  1
  7 35  1  0
  7 36  1  0
  7 37  1  0
 11 38  1  0
 11 39  1  0
 17 40  1  0
 17 41  1  0
 19 42  1  0
 21 43  1  0
 22 44  1  0
 24 45  1  0
 24 46  1  0
 27 47  1  0
M  END
>  <smiles>  (18) 
CCOC(=O)C(C)OC(=O)CC(=O)n1c(C(N)=O)cc2ccc(CC#N)cc21

>  <score_type>  (18) 
oracle

>  <origin>  (18) 
adg

>  <m_score__min__energy>  (18) 
-8.0199999999999996

>  <m_primary>  (18) 
energy

$$$$
19:0
     RDKit          3D

 50 51  0  0  1  0  0  0  0  0999 V2000
  148.2210  150.4200  132.3270 C   0  0  0  0  0  0  0  0  0  0  0  0
  147.9050  151.8630  132.6580 C   0  0  2  0  0  0  0  0  0  0  0  0
  146.5180  152.2540  132.2770 C   0  0  0  0  0  0  0  0  0  0  0  0
  145.9610  153.1020  133.2320 O   0  0  0  0  0  0  0  0  0  0  0  0
  144.6180  153.3960  133.2580 C   0  0  0  0  0  0  0  0  0  0  0  0
  143.7040  152.5680  133.4760 O   0  0  0  0  0  0  0  0  0  0  0  0
  144.2420  154.8270  133.0020 C   0  0  0  0  0  0  0  0  0  0  0  0
  145.3940  155.6080  132.8030 O   0  0  0  0  0  0  0  0  0  0  0  0
  145.8510  156.4300  133.8340 C   0  0  0  0  0  0  0  0  0  0  0  0
  146.3040  155.8100  134.8300 O   0  0  0  0  0  0  0  0  0  0  0  0
  145.7780  157.8210  133.6940 N   0  0  0  0  0  0  0  0  0  0  0  0
  146.7770  158.6640  133.3860 C   0  0  0  0  0  0  0  0  0  0  0  0
  148.1750  158.4480  133.1110 C   0  0  0  0  0  0  0  0  0  0  0  0
  148.8170  157.2140  132.8650 N   0  0  0  0  0  0  0  0  0  0  0  0
  148.9570  159.4590  133.0760 O   0  0  0  0  0  0  0  0  0  0  0  0
  146.2140  159.9520  133.3630 C   0  0  0  0  0  0  0  0  0  0  0  0
  144.8760  159.8750  133.6570 C   0  0  0  0  0  0  0  0  0  0  0  0
  143.9070  160.8500  133.7550 C   0  0  0  0  0  0  0  0  0  0  0  0
  142.6140  160.4970  134.0710 C   0  0  0  0  0  0  0  0  0  0  0  0
  142.3180  159.1690  134.2820 C   0  0  0  0  0  0  0  0  0  0  0  0
  140.9190  158.7950  134.6230 C   0  0  0  0  0  0  0  0  0  0  0  0
  140.6640  159.0580  136.1120 C   0  0  0  0  0  0  0  0  0  0  0  0
  140.7630  157.4210  134.4170 F   0  0  0  0  0  0  0  0  0  0  0  0
  139.9830  159.4370  133.8420 F   0  0  0  0  0  0  0  0  0  0  0  0
  143.3220  158.2000  134.1760 C   0  0  0  0  0  0  0  0  0  0  0  0
  144.6240  158.5350  133.8610 C   0  0  0  0  0  0  0  0  0  0  0  0
  148.8700  152.7240  132.1220 O   0  0  0  0  0  0  0  0  0  0  0  0
  148.6930  154.2910  132.7300 P   0  0  0  0  0  0  0  0  0  0  0  0
  150.0190  155.0010  132.5420 O   0  0  0  0  0  0  0  0  0  0  0  0
  148.3790  154.2710  134.3940 O   0  0  0  0  0  0  0  0  0  0  0  0
  147.5190  155.1620  131.8900 O   0  0  0  0  0  0  0  0  0  0  0  0
  148.3460  149.8490  133.2588 H   0  0  0  0  0  0  0  0  0  0  0  0
  147.3959  149.9891  131.7408 H   0  0  0  0  0  0  0  0  0  0  0  0
  149.1506  150.3734  131.7408 H   0  0  0  0  0  0  0  0  0  0  0  0
  147.9465  151.9599  133.7529 H   0  0  0  0  0  0  0  0  0  0  0  0
  146.5433  152.7715  131.3066 H   0  0  0  0  0  0  0  0  0  0  0  0
  145.9018  151.3451  132.2115 H   0  0  0  0  0  0  0  0  0  0  0  0
  143.6084  154.8803  132.1044 H   0  0  0  0  0  0  0  0  0  0  0  0
  143.6948  155.2138  133.8743 H   0  0  0  0  0  0  0  0  0  0  0  0
  148.9280  156.8050  131.8880 H   0  0  0  0  0  0  0  0  0  0  0  0
  149.2040  156.6980  133.7130 H   0  0  0  0  0  0  0  0  0  0  0  0
  146.7624  160.8798  133.1429 H   0  0  0  0  0  0  0  0  0  0  0  0
  144.1651  161.9051  133.5817 H   0  0  0  0  0  0  0  0  0  0  0  0
  141.8299  161.2640  134.1536 H   0  0  0  0  0  0  0  0  0  0  0  0
  141.3041  158.3979  136.7158 H   0  0  0  0  0  0  0  0  0  0  0  0
  140.8973  160.1076  136.3442 H   0  0  0  0  0  0  0  0  0  0  0  0
  139.6077  158.8572  136.3442 H   0  0  0  0  0  0  0  0  0  0  0  0
  143.0674  157.1438  134.3481 H   0  0  0  0  0  0  0  0  0  0  0  0
  147.4170  154.0310  134.5610 H   0  0  0  0  0  0  0  0  0  0  0  0
  146.6160  154.7200  131.9110 H   0  0  0  0  0  0  0  0  0  0  0  0
  1  2  1  0
  2  3  1  0
  3  4  1  0
  4  5  1  0
  5  6  2  0
  5  7  1  0
  7  8  1  0
  8  9  1  0
  9 10  2  0
  9 11  1  0
 11 12  1  0
 12 13  1  0
 13 14  1  0
 13 15  2  0
 12 16  2  0
 16 17  1  0
 17 18  2  0
 18 19  1  0
 19 20  2  0
 20 21  1  0
 21 22  1  0
 21 23  1  0
 21 24  1  0
 20 25  1  0
 25 26  2  0
  2 27  1  0
 27 28  1  0
 28 29  2  0
 28 30  1  0
 28 31  1  0
 26 11  1  0
 26 17  1  0
  1 32  1  0
  1 33  1  0
  1 34  1  0
  2 35  1  1
  3 36  1  0
  3 37  1  0
  7 38  1  0
  7 39  1  0
 14 40  1  0
 14 41  1  0
 16 42  1  0
 18 43  1  0
 19 44  1  0
 22 45  1  0
 22 46  1  0
 22 47  1  0
 25 48  1  0
 30 49  1  0
 31 50  1  0
M  END
>  <smiles>  (19) 
CC(COC(=O)COC(=O)n1c(C(N)=O)cc2ccc(C(C)(F)F)cc21)OP(=O)(O)O

>  <score_type>  (19) 
oracle

>  <origin>  (19) 
adg

>  <m_score__min__energy>  (19) 
-6.4900000000000002

>  <m_primary>  (19) 
energy

$$$$
20:0
     RDKit          3D

 56 57  0  0  0  0  0  0  0  0999 V2000
  141.0170  154.2020  134.0350 C   0  0  0  0  0  0  0  0  0  0  0  0
  141.5770  153.2320  134.9990 N   0  0  0  0  0  0  0  0  0  0  0  0
  142.1420  153.7730  136.1870 C   0  0  0  0  0  0  0  0  0  0  0  0
  143.5700  154.1940  135.9840 C   0  0  0  0  0  0  0  0  0  0  0  0
  144.5000  153.7790  136.7140 O   0  0  0  0  0  0  0  0  0  0  0  0
  143.7810  155.0850  134.9200 O   0  0  0  0  0  0  0  0  0  0  0  0
  141.4890  151.8850  134.6060 C   0  0  0  0  0  0  0  0  0  0  0  0
  141.0490  151.1000  135.5330 O   0  0  0  0  0  0  0  0  0  0  0  0
  141.8000  151.2900  133.3860 N   0  0  0  0  0  0  0  0  0  0  0  0
  140.8640  150.6840  132.4590 C   0  0  0  0  0  0  0  0  0  0  0  0
  143.2030  151.2590  132.9810 C   0  0  0  0  0  0  0  0  0  0  0  0
  143.7830  152.6180  132.9510 C   0  0  0  0  0  0  0  0  0  0  0  0
  143.1640  153.5090  132.3450 O   0  0  0  0  0  0  0  0  0  0  0  0
  144.9740  152.8380  133.5910 O   0  0  0  0  0  0  0  0  0  0  0  0
  146.1640  153.3000  132.9900 C   0  0  0  0  0  0  0  0  0  0  0  0
  145.9010  154.6250  132.3650 C   0  0  0  0  0  0  0  0  0  0  0  0
  145.6430  155.6450  133.3190 O   0  0  0  0  0  0  0  0  0  0  0  0
  146.6910  156.5800  133.4700 C   0  0  0  0  0  0  0  0  0  0  0  0
  147.8070  156.0560  133.6790 O   0  0  0  0  0  0  0  0  0  0  0  0
  146.4200  157.9610  133.3800 N   0  0  0  0  0  0  0  0  0  0  0  0
  147.2740  158.9220  133.0020 C   0  0  0  0  0  0  0  0  0  0  0  0
  148.6520  158.8870  132.5900 C   0  0  0  0  0  0  0  0  0  0  0  0
  149.4230  157.7580  132.2480 N   0  0  0  0  0  0  0  0  0  0  0  0
  149.2950  160.0000  132.5100 O   0  0  0  0  0  0  0  0  0  0  0  0
  146.5480  160.1200  133.0720 C   0  0  0  0  0  0  0  0  0  0  0  0
  145.2750  159.8670  133.4880 C   0  0  0  0  0  0  0  0  0  0  0  0
  144.1980  160.6910  133.7100 C   0  0  0  0  0  0  0  0  0  0  0  0
  142.9930  160.1810  134.1380 C   0  0  0  0  0  0  0  0  0  0  0  0
  142.8950  158.8230  134.3370 C   0  0  0  0  0  0  0  0  0  0  0  0
  141.6050  158.2670  134.7960 C   0  0  0  0  0  0  0  0  0  0  0  0
  140.6920  158.2890  133.7540 F   0  0  0  0  0  0  0  0  0  0  0  0
  141.0810  159.0510  135.8020 F   0  0  0  0  0  0  0  0  0  0  0  0
  141.8040  156.9560  135.1710 F   0  0  0  0  0  0  0  0  0  0  0  0
  143.9930  158.0070  134.1080 C   0  0  0  0  0  0  0  0  0  0  0  0
  145.2040  158.5040  133.6790 C   0  0  0  0  0  0  0  0  0  0  0  0
  140.5398  155.0286  134.5819 H   0  0  0  0  0  0  0  0  0  0  0  0
  141.8250  154.5988  133.4028 H   0  0  0  0  0  0  0  0  0  0  0  0
  140.2693  153.7007  133.4028 H   0  0  0  0  0  0  0  0  0  0  0  0
  141.5527  154.6494  136.4945 H   0  0  0  0  0  0  0  0  0  0  0  0
  142.1225  152.9920  136.9614 H   0  0  0  0  0  0  0  0  0  0  0  0
  143.9400  154.6790  134.0050 H   0  0  0  0  0  0  0  0  0  0  0  0
  140.0708  150.1705  133.0221 H   0  0  0  0  0  0  0  0  0  0  0  0
  140.4175  151.4649  131.8258 H   0  0  0  0  0  0  0  0  0  0  0  0
  141.3937  149.9570  131.8258 H   0  0  0  0  0  0  0  0  0  0  0  0
  143.7689  150.6435  133.6958 H   0  0  0  0  0  0  0  0  0  0  0  0
  143.2629  150.8333  131.9685 H   0  0  0  0  0  0  0  0  0  0  0  0
  146.9493  153.4005  133.7537 H   0  0  0  0  0  0  0  0  0  0  0  0
  146.4988  152.5848  132.2243 H   0  0  0  0  0  0  0  0  0  0  0  0
  146.7810  154.9140  131.7716 H   0  0  0  0  0  0  0  0  0  0  0  0
  145.0015  154.5224  131.7403 H   0  0  0  0  0  0  0  0  0  0  0  0
  149.9670  157.2630  133.0170 H   0  0  0  0  0  0  0  0  0  0  0  0
  149.4660  157.4110  131.2440 H   0  0  0  0  0  0  0  0  0  0  0  0
  146.9467  161.1156  132.8275 H   0  0  0  0  0  0  0  0  0  0  0  0
  144.3001  161.7735  133.5434 H   0  0  0  0  0  0  0  0  0  0  0  0
  142.1316  160.8415  134.3161 H   0  0  0  0  0  0  0  0  0  0  0  0
  143.8932  156.9243  134.2749 H   0  0  0  0  0  0  0  0  0  0  0  0
  1  2  1  0
  2  3  1  0
  3  4  1  0
  4  5  2  0
  4  6  1  0
  2  7  1  0
  7  8  2  0
  7  9  1  0
  9 10  1  0
  9 11  1  0
 11 12  1  0
 12 13  2  0
 12 14  1  0
 14 15  1  0
 15 16  1  0
 16 17  1  0
 17 18  1  0
 18 19  2  0
 18 20  1  0
 20 21  1  0
 21 22  1  0
 22 23  1  0
 22 24  2  0
 21 25  2  0
 25 26  1  0
 26 27  2  0
 27 28  1  0
 28 29  2  0
 29 30  1  0
 30 31  1  0
 30 32  1  0
 30 33  1  0
 29 34  1  0
 34 35  2  0
 35 20  1  0
 35 26  1  0
  1 36  1  0
  1 37  1  0
  1 38  1  0
  3 39  1  0
  3 40  1  0
  6 41  1  0
 10 42  1  0
 10 43  1  0
 10 44  1  0
 11 45  1  0
 11 46  1  0
 15 47  1  0
 15 48  1  0
 16 49  1  0
 16 50  1  0
 23 51  1  0
 23 52  1  0
 25 53  1  0
 27 54  1  0
 28 55  1  0
 34 56  1  0
M  END
>  <smiles>  (20) 
CN(CC(=O)O)C(=O)N(C)CC(=O)OCCOC(=O)n1c(C(N)=O)cc2ccc(C(F)(F)F)cc21

>  <score_type>  (20) 
oracle

>  <origin>  (20) 
adg

>  <m_score__min__energy>  (20) 
-6.1699999999999999

>  <m_primary>  (20) 
energy

$$$$
21:0
     RDKit          3D

 41 42  0  0  1  0  0  0  0  0999 V2000
  143.7270  155.2660  135.0330 C   0  0  0  0  0  0  0  0  0  0  0  0
  144.9930  155.1010  135.3270 C   0  0  0  0  0  0  0  0  0  0  0  0
  146.1490  155.3640  134.4390 C   0  0  1  0  0  0  0  0  0  0  0  0
  147.7060  155.6400  135.2690 S   0  0  0  0  0  0  0  0  0  0  0  0
  146.3790  153.7130  133.5820 S   0  0  0  0  0  0  0  0  0  0  0  0
  148.0650  153.5270  133.0750 C   0  0  0  0  0  0  0  0  0  0  0  0
  148.8240  154.4560  132.7280 O   0  0  0  0  0  0  0  0  0  0  0  0
  148.6120  152.2090  133.0570 N   0  0  0  0  0  0  0  0  0  0  0  0
  149.9920  152.0750  132.6390 C   0  0  0  0  0  0  0  0  0  0  0  0
  145.7790  156.3590  133.4220 C   0  0  0  0  0  0  0  0  0  0  0  0
  145.3560  155.8010  132.3270 O   0  0  0  0  0  0  0  0  0  0  0  0
  145.7880  157.7440  133.3960 N   0  0  0  0  0  0  0  0  0  0  0  0
  146.9340  158.4770  133.2560 C   0  0  0  0  0  0  0  0  0  0  0  0
  148.3070  158.1580  132.9730 C   0  0  0  0  0  0  0  0  0  0  0  0
  148.8790  156.9180  132.6110 N   0  0  0  0  0  0  0  0  0  0  0  0
  149.2040  159.1070  133.0350 O   0  0  0  0  0  0  0  0  0  0  0  0
  146.5490  159.8390  133.3580 C   0  0  0  0  0  0  0  0  0  0  0  0
  145.2080  159.9200  133.5510 C   0  0  0  0  0  0  0  0  0  0  0  0
  144.3940  161.0160  133.7070 C   0  0  0  0  0  0  0  0  0  0  0  0
  143.0400  160.8630  133.8980 C   0  0  0  0  0  0  0  0  0  0  0  0
  142.5480  159.5790  133.9260 C   0  0  0  0  0  0  0  0  0  0  0  0
  141.0760  159.3460  134.1330 C   0  0  0  0  0  0  0  0  0  0  0  0
  140.3300  160.0690  133.2460 F   0  0  0  0  0  0  0  0  0  0  0  0
  140.6890  159.6320  135.4300 F   0  0  0  0  0  0  0  0  0  0  0  0
  140.7810  158.0000  133.9480 F   0  0  0  0  0  0  0  0  0  0  0  0
  143.3910  158.4850  133.7660 C   0  0  0  0  0  0  0  0  0  0  0  0
  144.7480  158.6130  133.5720 C   0  0  0  0  0  0  0  0  0  0  0  0
  142.9541  155.0350  135.7808 H   0  0  0  0  0  0  0  0  0  0  0  0
  143.4370  155.6355  134.0383 H   0  0  0  0  0  0  0  0  0  0  0  0
  145.2208  154.7290  136.3368 H   0  0  0  0  0  0  0  0  0  0  0  0
  148.8110  155.7650  134.4430 H   0  0  0  0  0  0  0  0  0  0  0  0
  148.0460  151.3910  133.3300 H   0  0  0  0  0  0  0  0  0  0  0  0
  150.6394  152.0121  133.5261 H   0  0  0  0  0  0  0  0  0  0  0  0
  150.1056  151.1616  132.0367 H   0  0  0  0  0  0  0  0  0  0  0  0
  150.2793  152.9495  132.0367 H   0  0  0  0  0  0  0  0  0  0  0  0
  149.6100  156.5160  133.2730 H   0  0  0  0  0  0  0  0  0  0  0  0
  148.6330  156.3900  131.7330 H   0  0  0  0  0  0  0  0  0  0  0  0
  147.2329  160.6979  133.2909 H   0  0  0  0  0  0  0  0  0  0  0  0
  144.8292  162.0259  133.6789 H   0  0  0  0  0  0  0  0  0  0  0  0
  142.3779  161.7324  134.0232 H   0  0  0  0  0  0  0  0  0  0  0  0
  142.9557  157.4752  133.7957 H   0  0  0  0  0  0  0  0  0  0  0  0
  1  2  2  0
  2  3  1  0
  3  4  1  1
  3  5  1  0
  5  6  1  0
  6  7  2  0
  6  8  1  0
  8  9  1  0
  3 10  1  0
 10 11  2  0
 10 12  1  0
 12 13  1  0
 13 14  1  0
 14 15  1  0
 14 16  2  0
 13 17  2  0
 17 18  1  0
 18 19  2  0
 19 20  1  0
 20 21  2  0
 21 22  1  0
 22 23  1  0
 22 24  1  0
 22 25  1  0
 21 26  1  0
 26 27  2  0
 27 12  1  0
 27 18  1  0
  1 28  1  0
  1 29  1  0
  2 30  1  0
  4 31  1  0
  8 32  1  0
  9 33  1  0
  9 34  1  0
  9 35  1  0
 15 36  1  0
 15 37  1  0
 17 38  1  0
 19 39  1  0
 20 40  1  0
 26 41  1  0
M  END
>  <smiles>  (21) 
C=CC(S)(SC(=O)NC)C(=O)n1c(C(N)=O)cc2ccc(C(F)(F)F)cc21

>  <score_type>  (21) 
oracle

>  <origin>  (21) 
adg

>  <m_score__min__energy>  (21) 
-7.6500000000000004

>  <m_primary>  (21) 
energy

$$$$
22:0
     RDKit          3D

 50 52  0  0  1  0  0  0  0  0999 V2000
  148.8750  161.3470  130.7880 C   0  0  0  0  0  0  0  0  0  0  0  0
  149.5390  160.0960  131.0220 N   0  0  0  0  0  0  0  0  0  0  0  0
  149.2310  159.1490  129.9840 C   0  0  0  0  0  0  0  0  0  0  0  0
  149.1360  159.5530  132.3060 C   0  0  2  0  0  0  0  0  0  0  0  0
  148.7700  158.0950  132.2140 C   0  0  0  0  0  0  0  0  0  0  0  0
  147.8190  157.9580  133.4100 C   0  0  0  0  0  0  0  0  0  0  0  0
  146.9900  159.1340  133.2380 N   0  0  0  0  0  0  0  0  0  0  0  0
  145.5800  159.2790  133.4060 C   0  0  0  0  0  0  0  0  0  0  0  0
  145.0330  160.5310  133.5880 C   0  0  0  0  0  0  0  0  0  0  0  0
  143.6700  160.6340  133.7460 C   0  0  0  0  0  0  0  0  0  0  0  0
  142.8830  159.5040  133.7210 C   0  0  0  0  0  0  0  0  0  0  0  0
  141.5220  159.3350  133.8520 C   0  0  0  0  0  0  0  0  0  0  0  0
  141.2080  157.9780  133.7520 C   0  0  0  0  0  0  0  0  0  0  0  0
  139.8530  157.4960  133.8520 C   0  0  0  0  0  0  0  0  0  0  0  0
  139.2300  156.4760  133.1310 N   0  0  0  0  0  0  0  0  0  0  0  0
  139.1110  158.0820  134.7240 O   0  0  0  0  0  0  0  0  0  0  0  0
  142.3740  157.3310  133.5630 N   0  0  0  0  0  0  0  0  0  0  0  0
  142.5740  155.9380  133.4040 C   0  0  0  0  0  0  0  0  0  0  0  0
  141.5410  155.1800  133.3410 O   0  0  0  0  0  0  0  0  0  0  0  0
  143.7710  155.2940  133.3070 O   0  0  0  0  0  0  0  0  0  0  0  0
  144.3970  154.7960  132.1560 C   0  0  0  0  0  0  0  0  0  0  0  0
  144.4850  153.3010  132.2320 C   0  0  0  0  0  0  0  0  0  0  0  0
  143.5630  152.8180  133.1660 O   0  0  0  0  0  0  0  0  0  0  0  0
  143.3940  158.2420  133.5410 C   0  0  0  0  0  0  0  0  0  0  0  0
  144.7660  158.1500  133.3830 C   0  0  0  0  0  0  0  0  0  0  0  0
  147.9020  160.1930  132.8460 C   0  0  0  0  0  0  0  0  0  0  0  0
  148.6261  161.8159  131.7514 H   0  0  0  0  0  0  0  0  0  0  0  0
  149.5383  162.0130  130.2166 H   0  0  0  0  0  0  0  0  0  0  0  0
  147.9517  161.1708  130.2166 H   0  0  0  0  0  0  0  0  0  0  0  0
  148.9210  158.1959  130.4374 H   0  0  0  0  0  0  0  0  0  0  0  0
  148.4141  159.5412  129.3604 H   0  0  0  0  0  0  0  0  0  0  0  0
  150.1223  158.9857  129.3604 H   0  0  0  0  0  0  0  0  0  0  0  0
  150.0096  159.7346  132.9493 H   0  0  0  0  0  0  0  0  0  0  0  0
  148.2627  157.8646  131.2656 H   0  0  0  0  0  0  0  0  0  0  0  0
  149.6294  157.4087  132.2361 H   0  0  0  0  0  0  0  0  0  0  0  0
  147.2261  157.0333  133.3512 H   0  0  0  0  0  0  0  0  0  0  0  0
  148.3227  157.8962  134.3860 H   0  0  0  0  0  0  0  0  0  0  0  0
  145.6711  161.4268  133.6065 H   0  0  0  0  0  0  0  0  0  0  0  0
  143.2078  161.6213  133.8927 H   0  0  0  0  0  0  0  0  0  0  0  0
  140.7945  160.1446  134.0110 H   0  0  0  0  0  0  0  0  0  0  0  0
  139.2510  155.4750  133.4920 H   0  0  0  0  0  0  0  0  0  0  0  0
  138.7300  156.7150  132.2230 H   0  0  0  0  0  0  0  0  0  0  0  0
  143.8125  155.0828  131.2694 H   0  0  0  0  0  0  0  0  0  0  0  0
  145.4110  155.2162  132.0834 H   0  0  0  0  0  0  0  0  0  0  0  0
  144.2626  152.8716  131.2440 H   0  0  0  0  0  0  0  0  0  0  0  0
  145.5003  153.0127  132.5421 H   0  0  0  0  0  0  0  0  0  0  0  0
  142.9900  153.5810  133.4820 H   0  0  0  0  0  0  0  0  0  0  0  0
  145.2242  157.1609  133.2357 H   0  0  0  0  0  0  0  0  0  0  0  0
  147.4363  160.8208  132.0720 H   0  0  0  0  0  0  0  0  0  0  0  0
  148.1451  160.8306  133.7088 H   0  0  0  0  0  0  0  0  0  0  0  0
  1  2  1  0
  2  3  1  0
  2  4  1  0
  4  5  1  0
  5  6  1  0
  6  7  1  0
  7  8  1  0
  8  9  2  0
  9 10  1  0
 10 11  2  0
 11 12  1  0
 12 13  2  0
 13 14  1  0
 14 15  1  0
 14 16  2  0
 13 17  1  0
 17 18  1  0
 18 19  2  0
 18 20  1  0
 20 21  1  0
 21 22  1  0
 22 23  1  0
 17 24  1  0
 24 25  2  0
  7 26  1  0
 26  4  1  0
 25  8  1  0
 24 11  1  0
  1 27  1  0
  1 28  1  0
  1 29  1  0
  3 30  1  0
  3 31  1  0
  3 32  1  0
  4 33  1  1
  5 34  1  0
  5 35  1  0
  6 36  1  0
  6 37  1  0
  9 38  1  0
 10 39  1  0
 12 40  1  0
 15 41  1  0
 15 42  1  0
 21 43  1  0
 21 44  1  0
 22 45  1  0
 22 46  1  0
 23 47  1  0
 25 48  1  0
 26 49  1  0
 26 50  1  0
M  END
>  <smiles>  (22) 
CN(C)C1CCN(c2ccc3cc(C(N)=O)n(C(=O)OCCO)c3c2)C1

>  <score_type>  (22) 
oracle

>  <origin>  (22) 
adg

>  <m_score__min__energy>  (22) 
-7.6399999999999997

>  <m_primary>  (22) 
energy

$$$$
23:0
     RDKit          3D

 36 37  0  0  1  0  0  0  0  0999 V2000
  145.2100  162.0000  134.1070 N   0  0  0  0  0  0  0  0  0  0  0  0
  144.8210  160.6920  133.7590 C   0  0  0  0  0  0  0  0  0  0  0  0
  143.5480  160.5200  133.6890 O   0  0  0  0  0  0  0  0  0  0  0  0
  145.6460  159.5600  133.4790 C   0  0  0  0  0  0  0  0  0  0  0  0
  147.0390  159.6740  133.3260 C   0  0  0  0  0  0  0  0  0  0  0  0
  147.5780  158.4440  133.0650 C   0  0  0  0  0  0  0  0  0  0  0  0
  148.8670  158.0610  132.8460 C   0  0  0  0  0  0  0  0  0  0  0  0
  149.1240  156.7230  132.6020 C   0  0  0  0  0  0  0  0  0  0  0  0
  148.1260  155.7910  132.5790 C   0  0  0  0  0  0  0  0  0  0  0  0
  148.3700  154.4220  132.3580 N   0  0  0  0  0  0  0  0  0  0  0  0
  149.5940  153.7250  132.5690 C   0  0  0  0  0  0  0  0  0  0  0  0
  149.4590  152.2710  132.9430 C   0  0  1  0  0  0  0  0  0  0  0  0
  149.1160  152.0130  134.2410 O   0  0  0  0  0  0  0  0  0  0  0  0
  148.5400  151.5390  131.9650 C   0  0  0  0  0  0  0  0  0  0  0  0
  147.2400  151.7180  132.3810 O   0  0  0  0  0  0  0  0  0  0  0  0
  146.8280  156.2400  132.8090 C   0  0  0  0  0  0  0  0  0  0  0  0
  146.5220  157.5620  133.0550 C   0  0  0  0  0  0  0  0  0  0  0  0
  145.3780  158.2560  133.3050 N   0  0  0  0  0  0  0  0  0  0  0  0
  144.1180  157.6360  133.3610 C   0  0  0  0  0  0  0  0  0  0  0  0
  143.9440  156.6830  134.1970 O   0  0  0  0  0  0  0  0  0  0  0  0
  143.0100  157.9390  132.6000 O   0  0  0  0  0  0  0  0  0  0  0  0
  145.3680  162.7210  133.3530 H   0  0  0  0  0  0  0  0  0  0  0  0
  145.3300  162.2250  135.1340 H   0  0  0  0  0  0  0  0  0  0  0  0
  147.6096  160.6112  133.4044 H   0  0  0  0  0  0  0  0  0  0  0  0
  149.6839  158.7975  132.8627 H   0  0  0  0  0  0  0  0  0  0  0  0
  150.1604  156.4016  132.4217 H   0  0  0  0  0  0  0  0  0  0  0  0
  147.5570  153.8310  131.9900 H   0  0  0  0  0  0  0  0  0  0  0  0
  150.1807  153.7826  131.6403 H   0  0  0  0  0  0  0  0  0  0  0  0
  150.0744  154.2138  133.4294 H   0  0  0  0  0  0  0  0  0  0  0  0
  150.4811  151.8729  132.8605 H   0  0  0  0  0  0  0  0  0  0  0  0
  148.2710  151.4780  134.2570 H   0  0  0  0  0  0  0  0  0  0  0  0
  148.6676  151.9522  130.9536 H   0  0  0  0  0  0  0  0  0  0  0  0
  148.7872  150.4674  131.9405 H   0  0  0  0  0  0  0  0  0  0  0  0
  147.1590  151.6980  133.3610 H   0  0  0  0  0  0  0  0  0  0  0  0
  146.0088  155.5061  132.7938 H   0  0  0  0  0  0  0  0  0  0  0  0
  142.8730  158.9390  132.3810 H   0  0  0  0  0  0  0  0  0  0  0  0
  1  2  1  0
  2  3  2  0
  2  4  1  0
  4  5  2  0
  5  6  1  0
  6  7  2  0
  7  8  1  0
  8  9  2  0
  9 10  1  0
 10 11  1  0
 11 12  1  0
 12 13  1  0
 12 14  1  0
 14 15  1  0
  9 16  1  0
 16 17  2  0
 17 18  1  0
 18 19  1  0
 19 20  2  0
 19 21  1  0
 18  4  1  0
 17  6  1  0
  1 22  1  0
  1 23  1  0
  5 24  1  0
  7 25  1  0
  8 26  1  0
 10 27  1  0
 11 28  1  0
 11 29  1  0
 12 30  1  1
 13 31  1  0
 14 32  1  0
 14 33  1  0
 15 34  1  0
 16 35  1  0
 21 36  1  0
M  END
>  <smiles>  (23) 
NC(=O)c1cc2ccc(NCC(O)CO)cc2n1C(=O)O

>  <score_type>  (23) 
oracle

>  <origin>  (23) 
adg

>  <m_score__min__energy>  (23) 
-6.75

>  <m_primary>  (23) 
energy

$$$$
24:0
     RDKit          3D

 40 41  0  0  0  0  0  0  0  0999 V2000
  138.0550  159.4050  131.1290 C   0  0  0  0  0  0  0  0  0  0  0  0
  138.4350  158.6570  132.1500 C   0  0  0  0  0  0  0  0  0  0  0  0
  139.8390  158.6380  132.5310 C   0  0  0  0  0  0  0  0  0  0  0  0
  140.4750  157.5510  132.9370 C   0  0  0  0  0  0  0  0  0  0  0  0
  139.8360  156.2400  133.0510 C   0  0  0  0  0  0  0  0  0  0  0  0
  140.7070  155.2560  133.5970 O   0  0  0  0  0  0  0  0  0  0  0  0
  140.5860  153.9880  133.0550 C   0  0  0  0  0  0  0  0  0  0  0  0
  139.4070  153.7110  132.6360 O   0  0  0  0  0  0  0  0  0  0  0  0
  141.6120  153.0410  132.9400 N   0  0  0  0  0  0  0  0  0  0  0  0
  142.9460  153.2330  133.0970 C   0  0  0  0  0  0  0  0  0  0  0  0
  143.6790  154.4250  133.4160 C   0  0  0  0  0  0  0  0  0  0  0  0
  143.7640  155.4720  132.4170 N   0  0  0  0  0  0  0  0  0  0  0  0
  144.2720  154.6840  134.4840 O   0  0  0  0  0  0  0  0  0  0  0  0
  143.5420  152.0000  132.8850 C   0  0  0  0  0  0  0  0  0  0  0  0
  142.5900  151.0630  132.6020 C   0  0  0  0  0  0  0  0  0  0  0  0
  142.6920  149.7050  132.3200 C   0  0  0  0  0  0  0  0  0  0  0  0
  141.5490  148.9790  132.0660 C   0  0  0  0  0  0  0  0  0  0  0  0
  140.3340  149.6290  132.1010 C   0  0  0  0  0  0  0  0  0  0  0  0
  139.0740  148.8550  131.8260 C   0  0  0  0  0  0  0  0  0  0  0  0
  138.1800  149.6360  131.1200 F   0  0  0  0  0  0  0  0  0  0  0  0
  139.3580  147.7120  131.1020 F   0  0  0  0  0  0  0  0  0  0  0  0
  140.2570  150.9760  132.3830 C   0  0  0  0  0  0  0  0  0  0  0  0
  141.3850  151.7270  132.6400 C   0  0  0  0  0  0  0  0  0  0  0  0
  141.8970  157.6480  133.2970 C   0  0  0  0  0  0  0  0  0  0  0  0
  142.7270  158.2930  132.6080 O   0  0  0  0  0  0  0  0  0  0  0  0
  142.3750  157.0170  134.4340 O   0  0  0  0  0  0  0  0  0  0  0  0
  136.9970  159.4297  130.8290 H   0  0  0  0  0  0  0  0  0  0  0  0
  138.7967  160.0029  130.5791 H   0  0  0  0  0  0  0  0  0  0  0  0
  137.6991  158.0564  132.7047 H   0  0  0  0  0  0  0  0  0  0  0  0
  140.4037  159.5805  132.4786 H   0  0  0  0  0  0  0  0  0  0  0  0
  138.9549  156.3323  133.7030 H   0  0  0  0  0  0  0  0  0  0  0  0
  139.5566  155.9146  132.0381 H   0  0  0  0  0  0  0  0  0  0  0  0
  142.9660  156.1470  132.3850 H   0  0  0  0  0  0  0  0  0  0  0  0
  144.5810  155.5420  131.7700 H   0  0  0  0  0  0  0  0  0  0  0  0
  144.6233  151.8048  132.9371 H   0  0  0  0  0  0  0  0  0  0  0  0
  143.6766  149.2149  132.2999 H   0  0  0  0  0  0  0  0  0  0  0  0
  141.6048  147.9039  131.8401 H   0  0  0  0  0  0  0  0  0  0  0  0
  138.6265  148.5687  132.7892 H   0  0  0  0  0  0  0  0  0  0  0  0
  139.2715  151.4642  132.4036 H   0  0  0  0  0  0  0  0  0  0  0  0
  142.5530  156.0280  134.4010 H   0  0  0  0  0  0  0  0  0  0  0  0
  1  2  2  0
  2  3  1  0
  3  4  2  0
  4  5  1  0
  5  6  1  0
  6  7  1  0
  7  8  2  0
  7  9  1  0
  9 10  1  0
 10 11  1  0
 11 12  1  0
 11 13  2  0
 10 14  2  0
 14 15  1  0
 15 16  2  0
 16 17  1  0
 17 18  2  0
 18 19  1  0
 19 20  1  0
 19 21  1  0
 18 22  1  0
 22 23  2  0
  4 24  1  0
 24 25  2  0
 24 26  1  0
 23  9  1  0
 23 15  1  0
  1 27  1  0
  1 28  1  0
  2 29  1  0
  3 30  1  0
  5 31  1  0
  5 32  1  0
 12 33  1  0
 12 34  1  0
 14 35  1  0
 16 36  1  0
 17 37  1  0
 19 38  1  0
 22 39  1  0
 26 40  1  0
M  END
>  <smiles>  (24) 
C=C/C=C(\COC(=O)n1c(C(N)=O)cc2ccc(C(F)F)cc21)C(=O)O

>  <score_type>  (24) 
oracle

>  <origin>  (24) 
adg

>  <m_score__min__energy>  (24) 
-7.5199999999999996

>  <m_primary>  (24) 
energy

$$$$
25:0
     RDKit          3D

 49 50  0  0  0  0  0  0  0  0999 V2000
  148.8930  158.6100  131.1010 C   0  0  0  0  0  0  0  0  0  0  0  0
  148.4390  159.6330  131.8020 C   0  0  0  0  0  0  0  0  0  0  0  0
  148.4900  161.0370  131.2850 C   0  0  0  0  0  0  0  0  0  0  0  0
  147.8600  159.4270  133.1330 C   0  0  0  0  0  0  0  0  0  0  0  0
  148.5550  158.8770  134.1290 C   0  0  0  0  0  0  0  0  0  0  0  0
  146.5220  159.8100  133.4190 N   0  0  0  0  0  0  0  0  0  0  0  0
  146.2250  161.2130  133.7340 C   0  0  0  0  0  0  0  0  0  0  0  0
  145.4740  158.8480  133.3990 C   0  0  0  0  0  0  0  0  0  0  0  0
  145.7890  157.5100  133.4950 C   0  0  0  0  0  0  0  0  0  0  0  0
  144.7590  156.5990  133.4750 C   0  0  0  0  0  0  0  0  0  0  0  0
  143.4430  157.0450  133.3610 C   0  0  0  0  0  0  0  0  0  0  0  0
  142.3010  156.3250  133.3220 C   0  0  0  0  0  0  0  0  0  0  0  0
  141.2460  157.2500  133.1980 C   0  0  0  0  0  0  0  0  0  0  0  0
  139.8870  156.7560  133.0630 C   0  0  0  0  0  0  0  0  0  0  0  0
  138.8430  157.3580  132.3320 N   0  0  0  0  0  0  0  0  0  0  0  0
  139.5840  155.6580  133.6500 O   0  0  0  0  0  0  0  0  0  0  0  0
  141.7340  158.4980  133.1680 N   0  0  0  0  0  0  0  0  0  0  0  0
  141.1140  159.7530  133.2360 C   0  0  0  0  0  0  0  0  0  0  0  0
  141.5240  160.5260  134.1990 O   0  0  0  0  0  0  0  0  0  0  0  0
  140.0740  160.3480  132.4160 C   0  0  0  0  0  0  0  0  0  0  0  0
  139.5850  159.6770  131.3480 O   0  0  0  0  0  0  0  0  0  0  0  0
  138.7120  160.5620  130.6760 C   0  0  0  0  0  0  0  0  0  0  0  0
  137.2880  160.1210  130.7940 C   0  0  0  0  0  0  0  0  0  0  0  0
  137.1770  158.7680  131.1100 O   0  0  0  0  0  0  0  0  0  0  0  0
  143.0970  158.3580  133.2650 C   0  0  0  0  0  0  0  0  0  0  0  0
  144.1480  159.2740  133.2860 C   0  0  0  0  0  0  0  0  0  0  0  0
  148.8383  157.5922  131.5147 H   0  0  0  0  0  0  0  0  0  0  0  0
  149.3259  158.7757  130.1034 H   0  0  0  0  0  0  0  0  0  0  0  0
  148.5155  161.7388  132.1317 H   0  0  0  0  0  0  0  0  0  0  0  0
  149.3936  161.1693  130.6717 H   0  0  0  0  0  0  0  0  0  0  0  0
  147.5984  161.2345  130.6717 H   0  0  0  0  0  0  0  0  0  0  0  0
  148.0873  158.7381  135.1149 H   0  0  0  0  0  0  0  0  0  0  0  0
  149.5961  158.5622  133.9649 H   0  0  0  0  0  0  0  0  0  0  0  0
  146.1969  161.3457  134.8256 H   0  0  0  0  0  0  0  0  0  0  0  0
  147.0065  161.8582  133.3062 H   0  0  0  0  0  0  0  0  0  0  0  0
  145.2491  161.4862  133.3062 H   0  0  0  0  0  0  0  0  0  0  0  0
  146.8345  157.1800  133.5850 H   0  0  0  0  0  0  0  0  0  0  0  0
  144.9726  155.5225  133.5487 H   0  0  0  0  0  0  0  0  0  0  0  0
  142.2121  155.2299  133.3765 H   0  0  0  0  0  0  0  0  0  0  0  0
  139.1090  157.8510  131.4310 H   0  0  0  0  0  0  0  0  0  0  0  0
  137.8510  157.3160  132.6710 H   0  0  0  0  0  0  0  0  0  0  0  0
  139.2216  160.5490  133.0816 H   0  0  0  0  0  0  0  0  0  0  0  0
  140.5770  161.2138  131.9606 H   0  0  0  0  0  0  0  0  0  0  0  0
  138.8130  161.5657  131.1147 H   0  0  0  0  0  0  0  0  0  0  0  0
  138.9834  160.5718  129.6100 H   0  0  0  0  0  0  0  0  0  0  0  0
  136.7998  160.7099  131.5844 H   0  0  0  0  0  0  0  0  0  0  0  0
  136.8051  160.2791  129.8184 H   0  0  0  0  0  0  0  0  0  0  0  0
  137.9010  158.3280  130.5770 H   0  0  0  0  0  0  0  0  0  0  0  0
  143.9297  160.3496  133.2124 H   0  0  0  0  0  0  0  0  0  0  0  0
  1  2  2  0
  2  3  1  0
  2  4  1  0
  4  5  2  0
  4  6  1  0
  6  7  1  0
  6  8  1  0
  8  9  2  0
  9 10  1  0
 10 11  2  0
 11 12  1  0
 12 13  2  0
 13 14  1  0
 14 15  1  0
 14 16  2  0
 13 17  1  0
 17 18  1  0
 18 19  2  0
 18 20  1  0
 20 21  1  0
 21 22  1  0
 22 23  1  0
 23 24  1  0
 17 25  1  0
 25 26  2  0
 26  8  1  0
 25 11  1  0
  1 27  1  0
  1 28  1  0
  3 29  1  0
  3 30  1  0
  3 31  1  0
  5 32  1  0
  5 33  1  0
  7 34  1  0
  7 35  1  0
  7 36  1  0
  9 37  1  0
 10 38  1  0
 12 39  1  0
 15 40  1  0
 15 41  1  0
 20 42  1  0
 20 43  1  0
 22 44  1  0
 22 45  1  0
 23 46  1  0
 23 47  1  0
 24 48  1  0
 26 49  1  0
M  END
>  <smiles>  (25) 
C=C(C)C(=C)N(C)c1ccc2cc(C(N)=O)n(C(=O)COCCO)c2c1

>  <score_type>  (25) 
oracle

>  <origin>  (25) 
adg

>  <m_score__min__energy>  (25) 
-7.3899999999999997

>  <m_primary>  (25) 
energy

$$$$
26:0
     RDKit          3D

 51 52  0  0  0  0  0  0  0  0999 V2000
  139.4600  147.1210  130.2670 C   0  0  0  0  0  0  0  0  0  0  0  0
  139.5810  148.5630  130.4180 N   0  0  0  0  0  0  0  0  0  0  0  0
  138.5860  149.2050  129.5880 C   0  0  0  0  0  0  0  0  0  0  0  0
  139.3210  148.8710  131.8210 C   0  0  0  0  0  0  0  0  0  0  0  0
  139.8920  150.2330  132.1470 C   0  0  0  0  0  0  0  0  0  0  0  0
  141.2470  150.1640  132.6550 N   0  0  0  0  0  0  0  0  0  0  0  0
  142.2110  149.1710  132.2250 C   0  0  0  0  0  0  0  0  0  0  0  0
  141.6310  151.1320  133.6250 C   0  0  0  0  0  0  0  0  0  0  0  0
  141.3410  150.9270  134.8420 O   0  0  0  0  0  0  0  0  0  0  0  0
  142.3160  152.2980  133.2820 O   0  0  0  0  0  0  0  0  0  0  0  0
  141.5640  153.3050  132.6190 C   0  0  0  0  0  0  0  0  0  0  0  0
  140.4430  153.6980  133.3930 O   0  0  0  0  0  0  0  0  0  0  0  0
  139.8620  154.9610  133.2440 C   0  0  0  0  0  0  0  0  0  0  0  0
  138.7760  154.9520  132.6100 O   0  0  0  0  0  0  0  0  0  0  0  0
  140.4920  156.0920  133.7820 N   0  0  0  0  0  0  0  0  0  0  0  0
  141.3800  156.1230  134.7930 C   0  0  0  0  0  0  0  0  0  0  0  0
  141.9440  155.0840  135.6080 C   0  0  0  0  0  0  0  0  0  0  0  0
  142.3430  153.7970  135.2220 N   0  0  0  0  0  0  0  0  0  0  0  0
  142.1220  155.3320  136.8630 O   0  0  0  0  0  0  0  0  0  0  0  0
  141.7140  157.4720  134.9580 C   0  0  0  0  0  0  0  0  0  0  0  0
  141.0360  158.2380  134.0570 C   0  0  0  0  0  0  0  0  0  0  0  0
  141.0270  159.5970  133.8250 C   0  0  0  0  0  0  0  0  0  0  0  0
  140.2370  160.1310  132.8340 C   0  0  0  0  0  0  0  0  0  0  0  0
  139.4580  159.2810  132.0800 C   0  0  0  0  0  0  0  0  0  0  0  0
  138.5910  159.8390  130.9990 C   0  0  0  0  0  0  0  0  0  0  0  0
  137.2600  159.6890  131.3770 F   0  0  0  0  0  0  0  0  0  0  0  0
  138.7630  159.0340  129.8970 F   0  0  0  0  0  0  0  0  0  0  0  0
  138.8450  161.1530  130.7510 F   0  0  0  0  0  0  0  0  0  0  0  0
  139.4830  157.9080  132.3330 C   0  0  0  0  0  0  0  0  0  0  0  0
  140.2690  157.3580  133.3220 C   0  0  0  0  0  0  0  0  0  0  0  0
  139.4205  146.6503  131.2604 H   0  0  0  0  0  0  0  0  0  0  0  0
  138.5390  146.8863  129.7132 H   0  0  0  0  0  0  0  0  0  0  0  0
  140.3290  146.7361  129.7132 H   0  0  0  0  0  0  0  0  0  0  0  0
  137.8335  149.6905  130.2268 H   0  0  0  0  0  0  0  0  0  0  0  0
  139.0707  149.9611  128.9529 H   0  0  0  0  0  0  0  0  0  0  0  0
  138.0969  148.4517  128.9529 H   0  0  0  0  0  0  0  0  0  0  0  0
  138.2359  148.8745  132.0016 H   0  0  0  0  0  0  0  0  0  0  0  0
  139.7940  148.1103  132.4594 H   0  0  0  0  0  0  0  0  0  0  0  0
  139.8898  150.8437  131.2321 H   0  0  0  0  0  0  0  0  0  0  0  0
  139.2643  150.6768  132.9338 H   0  0  0  0  0  0  0  0  0  0  0  0
  142.6692  148.6990  133.1066 H   0  0  0  0  0  0  0  0  0  0  0  0
  141.7033  148.4046  131.6210 H   0  0  0  0  0  0  0  0  0  0  0  0
  142.9922  149.6558  131.6210 H   0  0  0  0  0  0  0  0  0  0  0  0
  142.2078  154.1806  132.4488 H   0  0  0  0  0  0  0  0  0  0  0  0
  141.2030  152.8986  131.6627 H   0  0  0  0  0  0  0  0  0  0  0  0
  143.3370  153.6100  134.8960 H   0  0  0  0  0  0  0  0  0  0  0  0
  141.6280  153.0110  135.2690 H   0  0  0  0  0  0  0  0  0  0  0  0
  142.4214  157.8584  135.7065 H   0  0  0  0  0  0  0  0  0  0  0  0
  141.6566  160.2593  134.4373 H   0  0  0  0  0  0  0  0  0  0  0  0
  140.2273  161.2150  132.6472 H   0  0  0  0  0  0  0  0  0  0  0  0
  138.8542  157.2433  131.7224 H   0  0  0  0  0  0  0  0  0  0  0  0
  1  2  1  0
  2  3  1  0
  2  4  1  0
  4  5  1  0
  5  6  1  0
  6  7  1  0
  6  8  1  0
  8  9  2  0
  8 10  1  0
 10 11  1  0
 11 12  1  0
 12 13  1  0
 13 14  2  0
 13 15  1  0
 15 16  1  0
 16 17  1  0
 17 18  1  0
 17 19  2  0
 16 20  2  0
 20 21  1  0
 21 22  2  0
 22 23  1  0
 23 24  2  0
 24 25  1  0
 25 26  1  0
 25 27  1  0
 25 28  1  0
 24 29  1  0
 29 30  2  0
 30 15  1  0
 30 21  1  0
  1 31  1  0
  1 32  1  0
  1 33  1  0
  3 34  1  0
  3 35  1  0
  3 36  1  0
  4 37  1  0
  4 38  1  0
  5 39  1  0
  5 40  1  0
  7 41  1  0
  7 42  1  0
  7 43  1  0
 11 44  1  0
 11 45  1  0
 18 46  1  0
 18 47  1  0
 20 48  1  0
 22 49  1  0
 23 50  1  0
 29 51  1  0
M  END
>  <smiles>  (26) 
CN(C)CCN(C)C(=O)OCOC(=O)n1c(C(N)=O)cc2ccc(C(F)(F)F)cc21

>  <score_type>  (26) 
oracle

>  <origin>  (26) 
adg

>  <m_score__min__energy>  (26) 
-7.5

>  <m_primary>  (26) 
energy

$$$$
27:0
     RDKit          3D

 53 56  0  0  1  0  0  0  0  0999 V2000
  140.6780  149.5670  133.3230 C   0  0  0  0  0  0  0  0  0  0  0  0
  141.4700  150.8250  133.3430 C   0  0  2  0  0  0  0  0  0  0  0  0
  140.7580  152.0050  132.6590 C   0  0  0  0  0  0  0  0  0  0  0  0
  141.4640  153.1830  133.1600 N   0  0  0  0  0  0  0  0  0  0  0  0
  140.9220  154.4320  133.4140 C   0  0  0  0  0  0  0  0  0  0  0  0
  139.6880  154.6030  132.9750 O   0  0  0  0  0  0  0  0  0  0  0  0
  141.4310  155.6700  134.0790 C   0  0  0  0  0  0  0  0  0  0  0  0
  142.1220  155.4910  135.3870 C   0  0  0  0  0  0  0  0  0  0  0  0
  143.2810  155.0640  135.3410 O   0  0  0  0  0  0  0  0  0  0  0  0
  141.5780  155.7700  136.6670 N   0  0  0  0  0  0  0  0  0  0  0  0
  141.3420  156.8770  137.3480 C   0  0  0  0  0  0  0  0  0  0  0  0
  141.1780  158.2730  136.9050 C   0  0  0  0  0  0  0  0  0  0  0  0
  139.9230  158.9520  137.0230 N   0  0  0  0  0  0  0  0  0  0  0  0
  142.1390  158.9040  136.4260 O   0  0  0  0  0  0  0  0  0  0  0  0
  140.9800  156.5930  138.6750 C   0  0  0  0  0  0  0  0  0  0  0  0
  140.9930  155.2360  138.7840 C   0  0  0  0  0  0  0  0  0  0  0  0
  140.6520  154.4670  139.8830 C   0  0  0  0  0  0  0  0  0  0  0  0
  140.6700  153.0810  139.7520 C   0  0  0  0  0  0  0  0  0  0  0  0
  141.0250  152.5470  138.5320 C   0  0  0  0  0  0  0  0  0  0  0  0
  140.9580  151.0680  138.4140 C   0  0  0  0  0  0  0  0  0  0  0  0
  140.7070  150.6630  137.1380 F   0  0  0  0  0  0  0  0  0  0  0  0
  139.8710  150.7400  139.2560 F   0  0  0  0  0  0  0  0  0  0  0  0
  142.0760  150.5050  138.9640 F   0  0  0  0  0  0  0  0  0  0  0  0
  141.3650  153.3550  137.4420 C   0  0  0  0  0  0  0  0  0  0  0  0
  141.3530  154.7560  137.5660 C   0  0  0  0  0  0  0  0  0  0  0  0
  142.4630  156.3570  133.1390 C   0  0  0  0  0  0  0  0  0  0  0  0
  141.0920  156.9140  133.4020 C   0  0  0  0  0  0  0  0  0  0  0  0
  142.9050  153.0260  133.4050 C   0  0  0  0  0  0  0  0  0  0  0  0
  143.4890  151.6950  133.2040 C   0  0  2  0  0  0  0  0  0  0  0  0
  144.8260  151.7700  132.4260 C   0  0  0  0  0  0  0  0  0  0  0  0
  142.6790  150.7250  132.6350 O   0  0  0  0  0  0  0  0  0  0  0  0
  140.4752  149.2449  134.3551 H   0  0  0  0  0  0  0  0  0  0  0  0
  139.7263  149.7412  132.7996 H   0  0  0  0  0  0  0  0  0  0  0  0
  141.2464  148.7841  132.7996 H   0  0  0  0  0  0  0  0  0  0  0  0
  141.6208  150.9933  134.4195 H   0  0  0  0  0  0  0  0  0  0  0  0
  140.8451  151.9330  131.5648 H   0  0  0  0  0  0  0  0  0  0  0  0
  139.6802  152.0330  132.8771 H   0  0  0  0  0  0  0  0  0  0  0  0
  139.8760  159.9630  136.7280 H   0  0  0  0  0  0  0  0  0  0  0  0
  139.0600  158.5340  137.3850 H   0  0  0  0  0  0  0  0  0  0  0  0
  140.7359  157.3187  139.4648 H   0  0  0  0  0  0  0  0  0  0  0  0
  140.3736  154.9393  140.8366 H   0  0  0  0  0  0  0  0  0  0  0  0
  140.4081  152.4299  140.5991 H   0  0  0  0  0  0  0  0  0  0  0  0
  141.6431  152.8926  136.4834 H   0  0  0  0  0  0  0  0  0  0  0  0
  143.3550  156.8494  133.5536 H   0  0  0  0  0  0  0  0  0  0  0  0
  143.0486  156.0685  132.2536 H   0  0  0  0  0  0  0  0  0  0  0  0
  140.9878  157.8380  133.9897 H   0  0  0  0  0  0  0  0  0  0  0  0
  140.2605  157.2187  132.7495 H   0  0  0  0  0  0  0  0  0  0  0  0
  143.4303  153.7204  132.7328 H   0  0  0  0  0  0  0  0  0  0  0  0
  143.0280  153.2246  134.4799 H   0  0  0  0  0  0  0  0  0  0  0  0
  143.6478  151.3544  134.2378 H   0  0  0  0  0  0  0  0  0  0  0  0
  145.6627  151.8169  133.1385 H   0  0  0  0  0  0  0  0  0  0  0  0
  144.9328  150.8764  131.7934 H   0  0  0  0  0  0  0  0  0  0  0  0
  144.8322  152.6699  131.7934 H   0  0  0  0  0  0  0  0  0  0  0  0
  1  2  1  0
  2  3  1  0
  3  4  1  0
  4  5  1  0
  5  6  2  0
  5  7  1  0
  7  8  1  0
  8  9  2  0
  8 10  1  0
 10 11  1  0
 11 12  1  0
 12 13  1  0
 12 14  2  0
 11 15  2  0
 15 16  1  0
 16 17  2  0
 17 18  1  0
 18 19  2  0
 19 20  1  0
 20 21  1  0
 20 22  1  0
 20 23  1  0
 19 24  1  0
 24 25  2  0
  7 26  1  0
 26 27  1  0
  4 28  1  0
 28 29  1  0
 29 30  1  0
 29 31  1  0
 31  2  1  0
 27  7  1  0
 25 10  1  0
 25 16  1  0
  1 32  1  0
  1 33  1  0
  1 34  1  0
  2 35  1  1
  3 36  1  0
  3 37  1  0
 13 38  1  0
 13 39  1  0
 15 40  1  0
 17 41  1  0
 18 42  1  0
 24 43  1  0
 26 44  1  0
 26 45  1  0
 27 46  1  0
 27 47  1  0
 28 48  1  0
 28 49  1  0
 29 50  1  1
 30 51  1  0
 30 52  1  0
 30 53  1  0
M  END
>  <smiles>  (27) 
CC1CN(C(=O)C2(C(=O)n3c(C(N)=O)cc4ccc(C(F)(F)F)cc43)CC2)CC(C)O1

>  <score_type>  (27) 
oracle

>  <origin>  (27) 
adg

>  <m_score__min__energy>  (27) 
-8.6300000000000008

>  <m_primary>  (27) 
energy

$$$$
28:0
     RDKit          3D

 41 43  0  0  0  0  0  0  0  0999 V2000
  139.4700  156.2030  133.0080 C   0  0  0  0  0  0  0  0  0  0  0  0
  139.5530  157.6430  132.6250 C   0  0  0  0  0  0  0  0  0  0  0  0
  138.8320  158.1710  131.6190 N   0  0  0  0  0  0  0  0  0  0  0  0
  139.1490  159.4760  131.5500 C   0  0  0  0  0  0  0  0  0  0  0  0
  140.0800  159.7630  132.5270 C   0  0  0  0  0  0  0  0  0  0  0  0
  140.3260  158.6040  133.1960 N   0  0  0  0  0  0  0  0  0  0  0  0
  141.2370  158.4420  134.3000 C   0  0  0  0  0  0  0  0  0  0  0  0
  142.6060  158.9700  134.0080 C   0  0  0  0  0  0  0  0  0  0  0  0
  142.8150  160.3290  134.0050 C   0  0  0  0  0  0  0  0  0  0  0  0
  144.0850  160.7840  133.7340 C   0  0  0  0  0  0  0  0  0  0  0  0
  145.1010  159.8920  133.4760 C   0  0  0  0  0  0  0  0  0  0  0  0
  146.4190  160.1040  133.1850 C   0  0  0  0  0  0  0  0  0  0  0  0
  147.0490  158.8560  133.0020 C   0  0  0  0  0  0  0  0  0  0  0  0
  148.4550  158.7860  132.6810 C   0  0  0  0  0  0  0  0  0  0  0  0
  149.0620  157.4980  132.3750 N   0  0  0  0  0  0  0  0  0  0  0  0
  149.2680  159.7350  132.6240 O   0  0  0  0  0  0  0  0  0  0  0  0
  146.1090  157.9050  133.1830 N   0  0  0  0  0  0  0  0  0  0  0  0
  146.3240  156.5160  133.0860 C   0  0  0  0  0  0  0  0  0  0  0  0
  146.4120  155.9820  131.9430 O   0  0  0  0  0  0  0  0  0  0  0  0
  146.4660  155.5730  134.2170 C   0  0  0  0  0  0  0  0  0  0  0  0
  147.7150  154.7500  133.9720 C   0  0  0  0  0  0  0  0  0  0  0  0
  147.9510  153.7970  134.7620 O   0  0  0  0  0  0  0  0  0  0  0  0
  148.5900  154.9860  132.9470 O   0  0  0  0  0  0  0  0  0  0  0  0
  144.9330  158.5200  133.4680 C   0  0  0  0  0  0  0  0  0  0  0  0
  143.6450  158.0870  133.7450 C   0  0  0  0  0  0  0  0  0  0  0  0
  139.4649  156.1149  134.1045 H   0  0  0  0  0  0  0  0  0  0  0  0
  138.5453  155.7680  132.6009 H   0  0  0  0  0  0  0  0  0  0  0  0
  140.3386  155.6647  132.6009 H   0  0  0  0  0  0  0  0  0  0  0  0
  138.7335  160.1976  130.8313 H   0  0  0  0  0  0  0  0  0  0  0  0
  140.5369  160.7434  132.7272 H   0  0  0  0  0  0  0  0  0  0  0  0
  140.8322  158.9788  135.1706 H   0  0  0  0  0  0  0  0  0  0  0  0
  141.3336  157.3633  134.4925 H   0  0  0  0  0  0  0  0  0  0  0  0
  141.9932  161.0301  134.2126 H   0  0  0  0  0  0  0  0  0  0  0  0
  144.2891  161.8648  133.7235 H   0  0  0  0  0  0  0  0  0  0  0  0
  146.9079  161.0862  133.1065 H   0  0  0  0  0  0  0  0  0  0  0  0
  150.0230  157.2680  132.6730 H   0  0  0  0  0  0  0  0  0  0  0  0
  148.4370  156.8430  131.8340 H   0  0  0  0  0  0  0  0  0  0  0  0
  146.5629  156.1303  135.1604 H   0  0  0  0  0  0  0  0  0  0  0  0
  145.5823  154.9221  134.2912 H   0  0  0  0  0  0  0  0  0  0  0  0
  148.2430  155.0840  132.0130 H   0  0  0  0  0  0  0  0  0  0  0  0
  143.4392  157.0065  133.7568 H   0  0  0  0  0  0  0  0  0  0  0  0
  1  2  1  0
  2  3  2  0
  3  4  1  0
  4  5  2  0
  5  6  1  0
  6  7  1  0
  7  8  1  0
  8  9  2  0
  9 10  1  0
 10 11  2  0
 11 12  1  0
 12 13  2  0
 13 14  1  0
 14 15  1  0
 14 16  2  0
 13 17  1  0
 17 18  1  0
 18 19  2  0
 18 20  1  0
 20 21  1  0
 21 22  2  0
 21 23  1  0
 17 24  1  0
 24 25  2  0
  6  2  1  0
 25  8  1  0
 24 11  1  0
  1 26  1  0
  1 27  1  0
  1 28  1  0
  4 29  1  0
  5 30  1  0
  7 31  1  0
  7 32  1  0
  9 33  1  0
 10 34  1  0
 12 35  1  0
 15 36  1  0
 15 37  1  0
 20 38  1  0
 20 39  1  0
 23 40  1  0
 25 41  1  0
M  END
>  <smiles>  (28) 
Cc1nccn1Cc1ccc2cc(C(N)=O)n(C(=O)CC(=O)O)c2c1

>  <score_type>  (28) 
oracle

>  <origin>  (28) 
adg

>  <m_score__min__energy>  (28) 
-7.5300000000000002

>  <m_primary>  (28) 
energy

$$$$
29:0
     RDKit          3D

 45 46  0  0  0  0  0  0  0  0999 V2000
  140.4800  158.1920  136.3820 C   0  0  0  0  0  0  0  0  0  0  0  0
  140.8200  157.6060  135.0970 N   0  0  0  0  0  0  0  0  0  0  0  0
  140.6370  156.2000  134.8030 C   0  0  0  0  0  0  0  0  0  0  0  0
  139.7630  155.9610  133.5980 C   0  0  0  0  0  0  0  0  0  0  0  0
  140.6000  155.4330  132.6060 O   0  0  0  0  0  0  0  0  0  0  0  0
  141.3550  158.4210  134.0660 C   0  0  0  0  0  0  0  0  0  0  0  0
  141.5290  158.0110  132.8800 O   0  0  0  0  0  0  0  0  0  0  0  0
  141.7530  159.8440  134.3340 C   0  0  0  0  0  0  0  0  0  0  0  0
  143.2200  159.9930  134.0280 C   0  0  0  0  0  0  0  0  0  0  0  0
  143.7810  161.2390  134.0120 C   0  0  0  0  0  0  0  0  0  0  0  0
  145.1160  161.3410  133.7330 C   0  0  0  0  0  0  0  0  0  0  0  0
  145.8710  160.2100  133.4780 C   0  0  0  0  0  0  0  0  0  0  0  0
  147.1830  160.0920  133.1880 C   0  0  0  0  0  0  0  0  0  0  0  0
  147.4660  158.7190  133.0150 C   0  0  0  0  0  0  0  0  0  0  0  0
  148.8050  158.2880  132.7030 C   0  0  0  0  0  0  0  0  0  0  0  0
  149.0790  156.8560  132.6350 N   0  0  0  0  0  0  0  0  0  0  0  0
  149.8140  158.9790  132.4760 O   0  0  0  0  0  0  0  0  0  0  0  0
  146.3220  158.0220  133.1990 N   0  0  0  0  0  0  0  0  0  0  0  0
  146.0530  156.6470  133.0640 C   0  0  0  0  0  0  0  0  0  0  0  0
  146.6730  156.0600  132.0850 O   0  0  0  0  0  0  0  0  0  0  0  0
  145.2050  155.7620  133.8340 C   0  0  0  0  0  0  0  0  0  0  0  0
  143.8210  155.5880  133.3290 C   0  0  0  0  0  0  0  0  0  0  0  0
  142.9790  154.8170  133.8600 O   0  0  0  0  0  0  0  0  0  0  0  0
  143.4620  156.3270  132.2100 O   0  0  0  0  0  0  0  0  0  0  0  0
  145.3460  158.9440  133.4850 C   0  0  0  0  0  0  0  0  0  0  0  0
  143.9890  158.8540  133.7690 C   0  0  0  0  0  0  0  0  0  0  0  0
  140.8546  157.5464  137.1900 H   0  0  0  0  0  0  0  0  0  0  0  0
  140.9408  159.1874  136.4645 H   0  0  0  0  0  0  0  0  0  0  0  0
  139.3871  158.2859  136.4645 H   0  0  0  0  0  0  0  0  0  0  0  0
  141.6229  155.7493  134.6163 H   0  0  0  0  0  0  0  0  0  0  0  0
  140.1358  155.7443  135.6697 H   0  0  0  0  0  0  0  0  0  0  0  0
  138.9636  155.2460  133.8426 H   0  0  0  0  0  0  0  0  0  0  0  0
  139.2807  156.8908  133.2621 H   0  0  0  0  0  0  0  0  0  0  0  0
  141.4900  155.8630  132.6210 H   0  0  0  0  0  0  0  0  0  0  0  0
  141.1691  160.5202  133.6923 H   0  0  0  0  0  0  0  0  0  0  0  0
  141.5586  160.0990  135.3862 H   0  0  0  0  0  0  0  0  0  0  0  0
  143.1761  162.1344  134.2176 H   0  0  0  0  0  0  0  0  0  0  0  0
  145.5939  162.3315  133.7111 H   0  0  0  0  0  0  0  0  0  0  0  0
  147.9042  160.9180  133.1016 H   0  0  0  0  0  0  0  0  0  0  0  0
  148.6840  156.3230  131.8230 H   0  0  0  0  0  0  0  0  0  0  0  0
  149.6510  156.3950  133.3810 H   0  0  0  0  0  0  0  0  0  0  0  0
  145.6829  154.7715  133.8552 H   0  0  0  0  0  0  0  0  0  0  0  0
  145.1037  156.2330  134.8229 H   0  0  0  0  0  0  0  0  0  0  0  0
  142.4940  156.3630  131.8900 H   0  0  0  0  0  0  0  0  0  0  0  0
  143.5087  157.8646  133.7906 H   0  0  0  0  0  0  0  0  0  0  0  0
  1  2  1  0
  2  3  1  0
  3  4  1  0
  4  5  1  0
  2  6  1  0
  6  7  2  0
  6  8  1  0
  8  9  1  0
  9 10  2  0
 10 11  1  0
 11 12  2  0
 12 13  1  0
 13 14  2  0
 14 15  1  0
 15 16  1  0
 15 17  2  0
 14 18  1  0
 18 19  1  0
 19 20  2  0
 19 21  1  0
 21 22  1  0
 22 23  2  0
 22 24  1  0
 18 25  1  0
 25 26  2  0
 26  9  1  0
 25 12  1  0
  1 27  1  0
  1 28  1  0
  1 29  1  0
  3 30  1  0
  3 31  1  0
  4 32  1  0
  4 33  1  0
  5 34  1  0
  8 35  1  0
  8 36  1  0
 10 37  1  0
 11 38  1  0
 13 39  1  0
 16 40  1  0
 16 41  1  0
 21 42  1  0
 21 43  1  0
 24 44  1  0
 26 45  1  0
M  END
>  <smiles>  (29) 
CN(CCO)C(=O)Cc1ccc2cc(C(N)=O)n(C(=O)CC(=O)O)c2c1

>  <score_type>  (29) 
oracle

>  <origin>  (29) 
adg

>  <m_score__min__energy>  (29) 
-6.9900000000000002

>  <m_primary>  (29) 
energy

$$$$
30:0
     RDKit          3D

 38 39  0  0  1  0  0  0  0  0999 V2000
  142.1690  155.9720  133.5680 N   0  0  0  0  0  0  0  0  0  0  0  0
  143.5260  155.7090  134.0380 C   0  0  0  0  0  0  0  0  0  0  0  0
  143.6160  154.7360  134.7900 O   0  0  0  0  0  0  0  0  0  0  0  0
  144.5730  156.5970  133.5830 C   0  0  0  0  0  0  0  0  0  0  0  0
  145.8690  156.0630  133.3790 C   0  0  0  0  0  0  0  0  0  0  0  0
  146.6730  157.0930  133.0080 C   0  0  0  0  0  0  0  0  0  0  0  0
  148.0130  157.0940  132.6960 C   0  0  0  0  0  0  0  0  0  0  0  0
  148.6560  158.2520  132.3320 C   0  0  0  0  0  0  0  0  0  0  0  0
  147.9060  159.4040  132.2960 C   0  0  0  0  0  0  0  0  0  0  0  0
  148.5820  160.6690  131.9050 C   0  0  0  0  0  0  0  0  0  0  0  0
  149.9300  160.4730  131.7700 F   0  0  0  0  0  0  0  0  0  0  0  0
  148.1240  161.1100  130.6600 F   0  0  0  0  0  0  0  0  0  0  0  0
  146.5470  159.3880  132.6140 C   0  0  0  0  0  0  0  0  0  0  0  0
  145.8950  158.2220  132.9820 C   0  0  0  0  0  0  0  0  0  0  0  0
  144.5990  157.9180  133.3330 N   0  0  0  0  0  0  0  0  0  0  0  0
  143.6260  158.9110  133.4130 C   0  0  0  0  0  0  0  0  0  0  0  0
  144.0660  160.1220  133.2640 O   0  0  0  0  0  0  0  0  0  0  0  0
  142.2050  158.8300  133.6210 C   0  0  0  0  0  0  0  0  0  0  0  0
  141.6110  158.5830  134.6860 O   0  0  0  0  0  0  0  0  0  0  0  0
  141.3090  159.0540  132.5010 N   0  0  0  0  0  0  0  0  0  0  0  0
  139.8870  159.0060  132.6230 C   0  0  2  0  0  0  0  0  0  0  0  0
  139.3500  157.6320  132.9370 C   0  0  0  0  0  0  0  0  0  0  0  0
  139.9390  156.5720  132.6560 O   0  0  0  0  0  0  0  0  0  0  0  0
  138.1260  157.5970  133.5770 O   0  0  0  0  0  0  0  0  0  0  0  0
  139.1180  159.7020  131.5550 C   0  0  0  0  0  0  0  0  0  0  0  0
  139.1110  161.0730  131.8450 F   0  0  0  0  0  0  0  0  0  0  0  0
  139.7670  159.5870  130.3530 F   0  0  0  0  0  0  0  0  0  0  0  0
  137.8020  159.3250  131.4900 F   0  0  0  0  0  0  0  0  0  0  0  0
  141.9600  155.6180  132.6090 H   0  0  0  0  0  0  0  0  0  0  0  0
  141.4870  156.4790  134.1730 H   0  0  0  0  0  0  0  0  0  0  0  0
  146.1683  155.0113  133.4986 H   0  0  0  0  0  0  0  0  0  0  0  0
  148.5789  156.1517  132.7388 H   0  0  0  0  0  0  0  0  0  0  0  0
  149.7267  158.2575  132.0797 H   0  0  0  0  0  0  0  0  0  0  0  0
  148.3625  161.4050  132.6925 H   0  0  0  0  0  0  0  0  0  0  0  0
  145.9772  160.3280  132.5712 H   0  0  0  0  0  0  0  0  0  0  0  0
  141.7180  159.2640  131.5380 H   0  0  0  0  0  0  0  0  0  0  0  0
  139.7020  159.6214  133.5158 H   0  0  0  0  0  0  0  0  0  0  0  0
  137.2700  157.2890  133.0940 H   0  0  0  0  0  0  0  0  0  0  0  0
  1  2  1  0
  2  3  2  0
  2  4  1  0
  4  5  2  0
  5  6  1  0
  6  7  2  0
  7  8  1  0
  8  9  2  0
  9 10  1  0
 10 11  1  0
 10 12  1  0
  9 13  1  0
 13 14  2  0
 14 15  1  0
 15 16  1  0
 16 17  2  0
 16 18  1  0
 18 19  2  0
 18 20  1  0
 20 21  1  0
 21 22  1  0
 22 23  2  0
 22 24  1  0
 21 25  1  0
 25 26  1  0
 25 27  1  0
 25 28  1  0
 15  4  1  0
 14  6  1  0
  1 29  1  0
  1 30  1  0
  5 31  1  0
  7 32  1  0
  8 33  1  0
 10 34  1  0
 13 35  1  0
 20 36  1  0
 21 37  1  1
 24 38  1  0
M  END
>  <smiles>  (30) 
NC(=O)c1cc2ccc(C(F)F)cc2n1C(=O)C(=O)NC(C(=O)O)C(F)(F)F

>  <score_type>  (30) 
oracle

>  <origin>  (30) 
adg

>  <m_score__min__energy>  (30) 
-7.2300000000000004

>  <m_primary>  (30) 
energy

$$$$
31:0
     RDKit          3D

 50 52  0  0  1  0  0  0  0  0999 V2000
  142.8180  153.6640  133.1490 C   0  0  0  0  0  0  0  0  0  0  0  0
  143.6340  154.9560  133.4840 C   0  0  0  0  0  0  0  0  0  0  0  0
  143.7590  155.0660  134.9670 C   0  0  0  0  0  0  0  0  0  0  0  0
  144.9310  154.8660  132.7810 C   0  0  0  0  0  0  0  0  0  0  0  0
  144.9200  153.9210  131.8940 O   0  0  0  0  0  0  0  0  0  0  0  0
  146.0970  155.6170  132.9410 N   0  0  0  0  0  0  0  0  0  0  0  0
  147.4060  155.2710  132.8270 C   0  0  0  0  0  0  0  0  0  0  0  0
  148.0450  153.9960  132.6730 C   0  0  0  0  0  0  0  0  0  0  0  0
  147.1810  152.8140  132.7130 N   0  0  0  0  0  0  0  0  0  0  0  0
  149.2320  153.7180  132.5120 O   0  0  0  0  0  0  0  0  0  0  0  0
  148.1840  156.4400  132.9870 C   0  0  0  0  0  0  0  0  0  0  0  0
  147.3260  157.4760  133.2010 C   0  0  0  0  0  0  0  0  0  0  0  0
  147.5870  158.8040  133.4140 C   0  0  0  0  0  0  0  0  0  0  0  0
  146.5090  159.6770  133.6090 C   0  0  0  0  0  0  0  0  0  0  0  0
  145.2020  159.2500  133.5940 C   0  0  0  0  0  0  0  0  0  0  0  0
  144.0700  160.0770  133.7480 N   0  0  0  0  0  0  0  0  0  0  0  0
  144.3680  161.5450  133.7320 C   0  0  0  0  0  0  0  0  0  0  0  0
  142.7070  159.7770  133.9310 C   0  0  1  0  0  0  0  0  0  0  0  0
  141.9690  158.8770  133.0300 C   0  0  0  0  0  0  0  0  0  0  0  0
  140.7010  158.5210  133.8380 C   0  0  0  0  0  0  0  0  0  0  0  0
  139.6100  158.1650  133.3650 O   0  0  0  0  0  0  0  0  0  0  0  0
  141.0800  158.6970  135.1910 N   0  0  0  0  0  0  0  0  0  0  0  0
  140.2300  158.4810  136.3640 C   0  0  0  0  0  0  0  0  0  0  0  0
  142.4520  159.1310  135.3090 C   0  0  0  0  0  0  0  0  0  0  0  0
  145.0310  157.8760  133.3710 C   0  0  0  0  0  0  0  0  0  0  0  0
  146.0440  156.9840  133.1750 C   0  0  0  0  0  0  0  0  0  0  0  0
  142.5081  153.1734  134.0835 H   0  0  0  0  0  0  0  0  0  0  0  0
  141.9267  153.9347  132.5640 H   0  0  0  0  0  0  0  0  0  0  0  0
  143.4454  152.9755  132.5640 H   0  0  0  0  0  0  0  0  0  0  0  0
  143.1369  155.8751  133.1403 H   0  0  0  0  0  0  0  0  0  0  0  0
  143.0160  154.4122  135.4471 H   0  0  0  0  0  0  0  0  0  0  0  0
  144.7699  154.7592  135.2735 H   0  0  0  0  0  0  0  0  0  0  0  0
  143.5832  156.1077  135.2735 H   0  0  0  0  0  0  0  0  0  0  0  0
  147.1060  152.2340  133.5560 H   0  0  0  0  0  0  0  0  0  0  0  0
  146.6620  152.6200  131.8220 H   0  0  0  0  0  0  0  0  0  0  0  0
  149.2815  156.5019  132.9462 H   0  0  0  0  0  0  0  0  0  0  0  0
  148.6217  159.1770  133.4315 H   0  0  0  0  0  0  0  0  0  0  0  0
  146.7157  160.7437  133.7805 H   0  0  0  0  0  0  0  0  0  0  0  0
  144.4431  161.9152  134.7651 H   0  0  0  0  0  0  0  0  0  0  0  0
  145.3200  161.7202  133.2096 H   0  0  0  0  0  0  0  0  0  0  0  0
  143.5596  162.0776  133.2096 H   0  0  0  0  0  0  0  0  0  0  0  0
  142.3315  160.7937  133.7433 H   0  0  0  0  0  0  0  0  0  0  0  0
  141.7071  159.3877  132.0916 H   0  0  0  0  0  0  0  0  0  0  0  0
  142.5523  157.9923  132.7349 H   0  0  0  0  0  0  0  0  0  0  0  0
  140.8222  158.6315  137.2787 H   0  0  0  0  0  0  0  0  0  0  0  0
  139.3935  159.1951  136.3472 H   0  0  0  0  0  0  0  0  0  0  0  0
  139.8359  157.4542  136.3472 H   0  0  0  0  0  0  0  0  0  0  0  0
  142.5706  159.8633  136.1212 H   0  0  0  0  0  0  0  0  0  0  0  0
  143.1532  158.3195  135.5537 H   0  0  0  0  0  0  0  0  0  0  0  0
  144.0018  157.4883  133.3528 H   0  0  0  0  0  0  0  0  0  0  0  0
  1  2  1  0
  2  3  1  0
  2  4  1  0
  4  5  2  0
  4  6  1  0
  6  7  1  0
  7  8  1  0
  8  9  1  0
  8 10  2  0
  7 11  2  0
 11 12  1  0
 12 13  2  0
 13 14  1  0
 14 15  2  0
 15 16  1  0
 16 17  1  0
 16 18  1  0
 18 19  1  0
 19 20  1  0
 20 21  2  0
 20 22  1  0
 22 23  1  0
 22 24  1  0
 15 25  1  0
 25 26  2  0
 26  6  1  0
 26 12  1  0
 24 18  1  0
  1 27  1  0
  1 28  1  0
  1 29  1  0
  2 30  1  0
  3 31  1  0
  3 32  1  0
  3 33  1  0
  9 34  1  0
  9 35  1  0
 11 36  1  0
 13 37  1  0
 14 38  1  0
 17 39  1  0
 17 40  1  0
 17 41  1  0
 18 42  1  1
 19 43  1  0
 19 44  1  0
 23 45  1  0
 23 46  1  0
 23 47  1  0
 24 48  1  0
 24 49  1  0
 25 50  1  0
M  END
>  <smiles>  (31) 
CC(C)C(=O)n1c(C(N)=O)cc2ccc(N(C)C3CC(=O)N(C)C3)cc21

>  <score_type>  (31) 
oracle

>  <origin>  (31) 
adg

>  <m_score__min__energy>  (31) 
-8.9700000000000006

>  <m_primary>  (31) 
energy

$$$$
32:0
     RDKit          3D

 45 47  0  0  0  0  0  0  0  0999 V2000
  149.2270  157.6210  132.2870 N   0  0  0  0  0  0  0  0  0  0  0  0
  148.2800  158.6300  132.0170 C   0  0  0  0  0  0  0  0  0  0  0  0
  148.6690  159.5400  131.2020 O   0  0  0  0  0  0  0  0  0  0  0  0
  146.9490  158.7520  132.5580 C   0  0  0  0  0  0  0  0  0  0  0  0
  146.4290  160.0530  132.7680 C   0  0  0  0  0  0  0  0  0  0  0  0
  145.2090  159.9100  133.3510 C   0  0  0  0  0  0  0  0  0  0  0  0
  144.3050  160.8680  133.7490 C   0  0  0  0  0  0  0  0  0  0  0  0
  143.1070  160.5070  134.3190 C   0  0  0  0  0  0  0  0  0  0  0  0
  142.8560  159.1700  134.4720 C   0  0  0  0  0  0  0  0  0  0  0  0
  141.6250  158.7540  135.0630 N   0  0  0  0  0  0  0  0  0  0  0  0
  141.1310  159.2440  136.3190 C   0  0  0  0  0  0  0  0  0  0  0  0
  140.4050  158.1360  137.0590 C   0  0  0  0  0  0  0  0  0  0  0  0
  139.4340  157.5070  136.3260 O   0  0  0  0  0  0  0  0  0  0  0  0
  139.3950  157.8960  135.0000 C   0  0  0  0  0  0  0  0  0  0  0  0
  140.7850  157.7680  134.3690 C   0  0  0  0  0  0  0  0  0  0  0  0
  143.7770  158.2070  134.0650 C   0  0  0  0  0  0  0  0  0  0  0  0
  144.9950  158.5620  133.4860 C   0  0  0  0  0  0  0  0  0  0  0  0
  146.0570  157.8460  132.9980 N   0  0  0  0  0  0  0  0  0  0  0  0
  146.1010  156.4600  133.0810 C   0  0  0  0  0  0  0  0  0  0  0  0
  145.0750  155.8580  132.5080 O   0  0  0  0  0  0  0  0  0  0  0  0
  146.9810  155.5360  133.6180 N   0  0  0  0  0  0  0  0  0  0  0  0
  147.7360  155.5100  134.7930 C   0  0  0  0  0  0  0  0  0  0  0  0
  148.4450  156.5540  135.0320 O   0  0  0  0  0  0  0  0  0  0  0  0
  147.2830  154.3790  132.7000 C   0  0  0  0  0  0  0  0  0  0  0  0
  148.7470  154.1390  132.7280 C   0  0  0  0  0  0  0  0  0  0  0  0
  149.2380  152.9690  132.8600 O   0  0  0  0  0  0  0  0  0  0  0  0
  149.5740  155.2370  132.6040 O   0  0  0  0  0  0  0  0  0  0  0  0
  149.3700  157.3220  133.2750 H   0  0  0  0  0  0  0  0  0  0  0  0
  149.8080  157.1410  131.5620 H   0  0  0  0  0  0  0  0  0  0  0  0
  146.9206  161.0020  132.5079 H   0  0  0  0  0  0  0  0  0  0  0  0
  144.5430  161.9329  133.6098 H   0  0  0  0  0  0  0  0  0  0  0  0
  142.3771  161.2647  134.6403 H   0  0  0  0  0  0  0  0  0  0  0  0
  141.9750  159.5975  136.9295 H   0  0  0  0  0  0  0  0  0  0  0  0
  140.4318  160.0727  136.1335 H   0  0  0  0  0  0  0  0  0  0  0  0
  141.1466  157.3834  137.3649 H   0  0  0  0  0  0  0  0  0  0  0  0
  139.8968  158.6093  137.9121 H   0  0  0  0  0  0  0  0  0  0  0  0
  138.6878  157.2544  134.4539 H   0  0  0  0  0  0  0  0  0  0  0  0
  139.0710  158.9457  134.9437 H   0  0  0  0  0  0  0  0  0  0  0  0
  141.1821  156.7529  134.5170 H   0  0  0  0  0  0  0  0  0  0  0  0
  140.7581  157.9472  133.2840 H   0  0  0  0  0  0  0  0  0  0  0  0
  143.5379  157.1423  134.2036 H   0  0  0  0  0  0  0  0  0  0  0  0
  147.7240  154.6460  135.4737 H   0  0  0  0  0  0  0  0  0  0  0  0
  146.7511  153.4802  133.0453 H   0  0  0  0  0  0  0  0  0  0  0  0
  146.9538  154.6088  131.6759 H   0  0  0  0  0  0  0  0  0  0  0  0
  149.6510  155.9420  133.3310 H   0  0  0  0  0  0  0  0  0  0  0  0
  1  2  1  0
  2  3  2  0
  2  4  1  0
  4  5  2  0
  5  6  1  0
  6  7  2  0
  7  8  1  0
  8  9  2  0
  9 10  1  0
 10 11  1  0
 11 12  1  0
 12 13  1  0
 13 14  1  0
 14 15  1  0
  9 16  1  0
 16 17  2  0
 17 18  1  0
 18 19  1  0
 19 20  2  0
 19 21  1  0
 21 22  1  0
 22 23  2  0
 21 24  1  0
 24 25  1  0
 25 26  2  0
 25 27  1  0
 18  4  1  0
 17  6  1  0
 15 10  1  0
  1 28  1  0
  1 29  1  0
  5 30  1  0
  7 31  1  0
  8 32  1  0
 11 33  1  0
 11 34  1  0
 12 35  1  0
 12 36  1  0
 14 37  1  0
 14 38  1  0
 15 39  1  0
 15 40  1  0
 16 41  1  0
 22 42  1  0
 24 43  1  0
 24 44  1  0
 27 45  1  0
M  END
>  <smiles>  (32) 
NC(=O)c1cc2ccc(N3CCOCC3)cc2n1C(=O)N(C=O)CC(=O)O

>  <score_type>  (32) 
oracle

>  <origin>  (32) 
adg

>  <m_score__min__energy>  (32) 
-7.7300000000000004

>  <m_primary>  (32) 
energy

$$$$
34:0
     RDKit          3D

 54 56  0  0  0  0  0  0  0  0999 V2000
  149.4450  151.5310  134.0940 C   0  0  0  0  0  0  0  0  0  0  0  0
  148.9930  151.0920  132.7520 C   0  0  0  0  0  0  0  0  0  0  0  0
  150.1050  150.9400  131.7740 C   0  0  0  0  0  0  0  0  0  0  0  0
  148.5480  149.5780  133.0450 C   0  0  0  0  0  0  0  0  0  0  0  0
  147.8240  151.7640  132.1830 C   0  0  0  0  0  0  0  0  0  0  0  0
  147.3050  151.0980  131.2050 O   0  0  0  0  0  0  0  0  0  0  0  0
  147.1800  152.9640  132.5100 N   0  0  0  0  0  0  0  0  0  0  0  0
  147.6650  154.1970  132.7940 C   0  0  0  0  0  0  0  0  0  0  0  0
  148.9460  154.8120  132.6710 C   0  0  0  0  0  0  0  0  0  0  0  0
  149.3090  156.1650  132.6230 N   0  0  0  0  0  0  0  0  0  0  0  0
  149.9590  154.0090  132.6020 O   0  0  0  0  0  0  0  0  0  0  0  0
  146.5580  155.0030  133.1880 C   0  0  0  0  0  0  0  0  0  0  0  0
  145.4310  154.2510  133.1320 C   0  0  0  0  0  0  0  0  0  0  0  0
  144.1290  154.5820  133.4140 C   0  0  0  0  0  0  0  0  0  0  0  0
  143.1240  153.6580  133.2880 C   0  0  0  0  0  0  0  0  0  0  0  0
  143.4580  152.3910  132.8720 C   0  0  0  0  0  0  0  0  0  0  0  0
  142.4550  151.3720  132.7270 N   0  0  0  0  0  0  0  0  0  0  0  0
  141.0620  151.5850  133.0320 C   0  0  0  0  0  0  0  0  0  0  0  0
  140.2670  150.9540  131.8790 C   0  0  0  0  0  0  0  0  0  0  0  0
  140.4490  149.5100  132.0750 N   0  0  0  0  0  0  0  0  0  0  0  0
  139.3790  148.6910  130.9890 S   0  0  0  0  0  0  0  0  0  0  0  0
  139.9940  147.0520  130.7320 C   0  0  0  0  0  0  0  0  0  0  0  0
  137.9830  148.6550  131.5700 O   0  0  0  0  0  0  0  0  0  0  0  0
  139.3450  149.4340  129.6820 O   0  0  0  0  0  0  0  0  0  0  0  0
  141.7910  149.2070  131.7030 C   0  0  0  0  0  0  0  0  0  0  0  0
  142.8580  150.0800  132.2470 C   0  0  0  0  0  0  0  0  0  0  0  0
  144.7930  152.0750  132.5910 C   0  0  0  0  0  0  0  0  0  0  0  0
  145.8130  153.0020  132.7150 C   0  0  0  0  0  0  0  0  0  0  0  0
  148.8834  150.9855  134.8667 H   0  0  0  0  0  0  0  0  0  0  0  0
  150.5193  151.3223  134.2055 H   0  0  0  0  0  0  0  0  0  0  0  0
  149.2678  152.6109  134.2055 H   0  0  0  0  0  0  0  0  0  0  0  0
  151.0539  150.8103  132.3150 H   0  0  0  0  0  0  0  0  0  0  0  0
  149.9197  150.0588  131.1422 H   0  0  0  0  0  0  0  0  0  0  0  0
  150.1630  151.8386  131.1422 H   0  0  0  0  0  0  0  0  0  0  0  0
  148.4997  149.4138  134.1316 H   0  0  0  0  0  0  0  0  0  0  0  0
  147.5580  149.3946  132.6021 H   0  0  0  0  0  0  0  0  0  0  0  0
  149.2813  148.8880  132.6021 H   0  0  0  0  0  0  0  0  0  0  0  0
  149.9400  156.6150  131.9330 H   0  0  0  0  0  0  0  0  0  0  0  0
  148.9100  156.8000  133.3590 H   0  0  0  0  0  0  0  0  0  0  0  0
  146.6092  156.0601  133.4879 H   0  0  0  0  0  0  0  0  0  0  0  0
  143.8886  155.6029  133.7457 H   0  0  0  0  0  0  0  0  0  0  0  0
  142.0804  153.9228  133.5133 H   0  0  0  0  0  0  0  0  0  0  0  0
  140.8020  151.0997  133.9843 H   0  0  0  0  0  0  0  0  0  0  0  0
  140.8345  152.6563  133.1353 H   0  0  0  0  0  0  0  0  0  0  0  0
  139.2032  151.2267  131.9416 H   0  0  0  0  0  0  0  0  0  0  0  0
  140.6090  151.2949  130.8907 H   0  0  0  0  0  0  0  0  0  0  0  0
  140.1744  146.5713  131.7048 H   0  0  0  0  0  0  0  0  0  0  0  0
  139.2541  146.4673  130.1657 H   0  0  0  0  0  0  0  0  0  0  0  0
  140.9359  147.0984  130.1657 H   0  0  0  0  0  0  0  0  0  0  0  0
  142.0025  148.1798  132.0349 H   0  0  0  0  0  0  0  0  0  0  0  0
  141.8254  149.3617  130.6145 H   0  0  0  0  0  0  0  0  0  0  0  0
  143.3301  149.5460  133.0848 H   0  0  0  0  0  0  0  0  0  0  0  0
  143.5249  150.2840  131.3963 H   0  0  0  0  0  0  0  0  0  0  0  0
  145.0393  151.0552  132.2605 H   0  0  0  0  0  0  0  0  0  0  0  0
  1  2  1  0
  2  3  1  0
  2  4  1  0
  2  5  1  0
  5  6  2  0
  5  7  1  0
  7  8  1  0
  8  9  1  0
  9 10  1  0
  9 11  2  0
  8 12  2  0
 12 13  1  0
 13 14  2  0
 14 15  1  0
 15 16  2  0
 16 17  1  0
 17 18  1  0
 18 19  1  0
 19 20  1  0
 20 21  1  0
 21 22  1  0
 21 23  2  0
 21 24  2  0
 20 25  1  0
 25 26  1  0
 16 27  1  0
 27 28  2  0
 28  7  1  0
 28 13  1  0
 26 17  1  0
  1 29  1  0
  1 30  1  0
  1 31  1  0
  3 32  1  0
  3 33  1  0
  3 34  1  0
  4 35  1  0
  4 36  1  0
  4 37  1  0
 10 38  1  0
 10 39  1  0
 12 40  1  0
 14 41  1  0
 15 42  1  0
 18 43  1  0
 18 44  1  0
 19 45  1  0
 19 46  1  0
 22 47  1  0
 22 48  1  0
 22 49  1  0
 25 50  1  0
 25 51  1  0
 26 52  1  0
 26 53  1  0
 27 54  1  0
M  END
>  <smiles>  (33) 
CC(C)(C)C(=O)n1c(C(N)=O)cc2ccc(N3CCN(S(C)(=O)=O)CC3)cc21

>  <score_type>  (33) 
oracle

>  <origin>  (33) 
adg

>  <m_score__min__energy>  (33) 
-9.2799999999999994

>  <m_primary>  (33) 
energy

$$$$
35:0
     RDKit          3D

 47 48  0  0  0  0  0  0  0  0999 V2000
  139.3510  156.0080  132.9820 C   0  0  0  0  0  0  0  0  0  0  0  0
  139.9080  157.1720  133.6180 N   0  0  0  0  0  0  0  0  0  0  0  0
  139.2410  158.4460  133.2010 C   0  0  0  0  0  0  0  0  0  0  0  0
  139.3880  158.7000  131.7700 C   0  0  0  0  0  0  0  0  0  0  0  0
  138.3830  158.6710  130.9970 O   0  0  0  0  0  0  0  0  0  0  0  0
  140.6170  158.9870  131.1570 O   0  0  0  0  0  0  0  0  0  0  0  0
  140.9420  157.2860  134.5390 C   0  0  0  0  0  0  0  0  0  0  0  0
  140.7040  156.6680  135.6680 O   0  0  0  0  0  0  0  0  0  0  0  0
  142.1770  157.9270  134.4930 N   0  0  0  0  0  0  0  0  0  0  0  0
  142.3200  159.2550  135.1380 C   0  0  0  0  0  0  0  0  0  0  0  0
  142.6790  160.2930  134.1180 C   0  0  0  0  0  0  0  0  0  0  0  0
  141.8560  160.2380  132.9680 O   0  0  0  0  0  0  0  0  0  0  0  0
  143.3430  157.5210  133.8060 C   0  0  0  0  0  0  0  0  0  0  0  0
  143.2740  157.8670  132.5360 O   0  0  0  0  0  0  0  0  0  0  0  0
  144.5100  156.8570  134.1490 N   0  0  0  0  0  0  0  0  0  0  0  0
  144.8030  155.6540  134.6480 C   0  0  0  0  0  0  0  0  0  0  0  0
  143.8990  154.7400  135.3910 C   0  0  0  0  0  0  0  0  0  0  0  0
  142.4930  154.9230  135.3750 N   0  0  0  0  0  0  0  0  0  0  0  0
  144.3330  153.7700  136.0640 O   0  0  0  0  0  0  0  0  0  0  0  0
  146.1510  155.3670  134.5880 C   0  0  0  0  0  0  0  0  0  0  0  0
  146.7380  156.4570  134.0240 C   0  0  0  0  0  0  0  0  0  0  0  0
  148.0670  156.6890  133.7390 C   0  0  0  0  0  0  0  0  0  0  0  0
  148.4460  157.8780  133.1590 C   0  0  0  0  0  0  0  0  0  0  0  0
  147.4690  158.8070  132.8800 C   0  0  0  0  0  0  0  0  0  0  0  0
  147.8880  160.0840  132.2540 C   0  0  0  0  0  0  0  0  0  0  0  0
  149.2750  160.1160  132.2490 F   0  0  0  0  0  0  0  0  0  0  0  0
  147.4810  161.1450  133.0560 F   0  0  0  0  0  0  0  0  0  0  0  0
  147.3440  160.1870  130.9930 F   0  0  0  0  0  0  0  0  0  0  0  0
  146.1300  158.5510  133.1780 C   0  0  0  0  0  0  0  0  0  0  0  0
  145.7430  157.3560  133.7620 C   0  0  0  0  0  0  0  0  0  0  0  0
  139.0111  155.2978  133.7501 H   0  0  0  0  0  0  0  0  0  0  0  0
  138.4978  156.3058  132.3548 H   0  0  0  0  0  0  0  0  0  0  0  0
  140.1181  155.5304  132.3548 H   0  0  0  0  0  0  0  0  0  0  0  0
  138.1696  158.3807  133.4415 H   0  0  0  0  0  0  0  0  0  0  0  0
  139.7219  159.2735  133.7432 H   0  0  0  0  0  0  0  0  0  0  0  0
  141.4750  158.6530  131.5630 H   0  0  0  0  0  0  0  0  0  0  0  0
  141.3686  159.5303  135.6165 H   0  0  0  0  0  0  0  0  0  0  0  0
  143.1196  159.2024  135.8916 H   0  0  0  0  0  0  0  0  0  0  0  0
  142.5760  161.2874  134.5769 H   0  0  0  0  0  0  0  0  0  0  0  0
  143.7125  160.0979  133.7958 H   0  0  0  0  0  0  0  0  0  0  0  0
  142.3150  159.7600  132.2200 H   0  0  0  0  0  0  0  0  0  0  0  0
  141.8900  154.6140  136.1540 H   0  0  0  0  0  0  0  0  0  0  0  0
  142.0560  155.3870  134.5410 H   0  0  0  0  0  0  0  0  0  0  0  0
  146.6488  154.4463  134.9265 H   0  0  0  0  0  0  0  0  0  0  0  0
  148.8227  155.9252  133.9748 H   0  0  0  0  0  0  0  0  0  0  0  0
  149.5014  158.0808  132.9245 H   0  0  0  0  0  0  0  0  0  0  0  0
  145.3693  159.3107  132.9453 H   0  0  0  0  0  0  0  0  0  0  0  0
  1  2  1  0
  2  3  1  0
  3  4  1  0
  4  5  2  0
  4  6  1  0
  2  7  1  0
  7  8  2  0
  7  9  1  0
  9 10  1  0
 10 11  1  0
 11 12  1  0
  9 13  1  0
 13 14  2  0
 13 15  1  0
 15 16  1  0
 16 17  1  0
 17 18  1  0
 17 19  2  0
 16 20  2  0
 20 21  1  0
 21 22  2  0
 22 23  1  0
 23 24  2  0
 24 25  1  0
 25 26  1  0
 25 27  1  0
 25 28  1  0
 24 29  1  0
 29 30  2  0
 30 15  1  0
 30 21  1  0
  1 31  1  0
  1 32  1  0
  1 33  1  0
  3 34  1  0
  3 35  1  0
  6 36  1  0
 10 37  1  0
 10 38  1  0
 11 39  1  0
 11 40  1  0
 12 41  1  0
 18 42  1  0
 18 43  1  0
 20 44  1  0
 22 45  1  0
 23 46  1  0
 29 47  1  0
M  END
>  <smiles>  (34) 
CN(CC(=O)O)C(=O)N(CCO)C(=O)n1c(C(N)=O)cc2ccc(C(F)(F)F)cc21

>  <score_type>  (34) 
oracle

>  <origin>  (34) 
adg

>  <m_score__min__energy>  (34) 
-5.6399999999999997

>  <m_primary>  (34) 
energy

$$$$
36:0
     RDKit          3D

 41 42  0  0  0  0  0  0  0  0999 V2000
  140.5320  156.5590  133.3370 C   0  0  0  0  0  0  0  0  0  0  0  0
  141.6590  156.8880  134.1100 O   0  0  0  0  0  0  0  0  0  0  0  0
  141.4680  157.4610  135.3540 C   0  0  0  0  0  0  0  0  0  0  0  0
  142.1620  157.0890  136.3310 O   0  0  0  0  0  0  0  0  0  0  0  0
  140.4170  158.5170  135.4550 C   0  0  0  0  0  0  0  0  0  0  0  0
  140.8910  159.8010  135.1760 O   0  0  0  0  0  0  0  0  0  0  0  0
  141.4950  160.2040  134.0010 C   0  0  0  0  0  0  0  0  0  0  0  0
  140.7770  160.3160  132.9860 O   0  0  0  0  0  0  0  0  0  0  0  0
  142.9420  160.4870  133.9750 C   0  0  0  0  0  0  0  0  0  0  0  0
  143.8200  159.5900  133.6470 C   0  0  0  0  0  0  0  0  0  0  0  0
  145.2380  159.6340  133.5580 C   0  0  0  0  0  0  0  0  0  0  0  0
  145.7190  160.8430  133.7600 O   0  0  0  0  0  0  0  0  0  0  0  0
  146.2340  158.6810  133.3130 N   0  0  0  0  0  0  0  0  0  0  0  0
  146.4680  157.4480  133.7600 C   0  0  0  0  0  0  0  0  0  0  0  0
  145.5410  156.4890  134.3870 C   0  0  0  0  0  0  0  0  0  0  0  0
  144.1240  156.6340  134.1890 N   0  0  0  0  0  0  0  0  0  0  0  0
  145.8950  155.5290  135.0970 O   0  0  0  0  0  0  0  0  0  0  0  0
  147.7400  156.9950  133.3950 C   0  0  0  0  0  0  0  0  0  0  0  0
  148.3020  158.0050  132.6840 C   0  0  0  0  0  0  0  0  0  0  0  0
  149.5530  158.0660  132.0950 C   0  0  0  0  0  0  0  0  0  0  0  0
  149.9350  159.1970  131.4130 C   0  0  0  0  0  0  0  0  0  0  0  0
  149.0420  160.2400  131.3430 C   0  0  0  0  0  0  0  0  0  0  0  0
  149.4610  161.4560  130.6050 C   0  0  0  0  0  0  0  0  0  0  0  0
  149.6050  161.1740  129.2420 F   0  0  0  0  0  0  0  0  0  0  0  0
  148.5310  162.4840  130.7000 F   0  0  0  0  0  0  0  0  0  0  0  0
  147.7830  160.1580  131.9450 C   0  0  0  0  0  0  0  0  0  0  0  0
  147.3860  159.0210  132.6370 C   0  0  0  0  0  0  0  0  0  0  0  0
  139.6906  156.3134  134.0016 H   0  0  0  0  0  0  0  0  0  0  0  0
  140.2601  157.4153  132.7023 H   0  0  0  0  0  0  0  0  0  0  0  0
  140.7634  155.6909  132.7023 H   0  0  0  0  0  0  0  0  0  0  0  0
  139.6143  158.2792  134.7415 H   0  0  0  0  0  0  0  0  0  0  0  0
  140.0609  158.5217  136.4958 H   0  0  0  0  0  0  0  0  0  0  0  0
  143.2896  161.4955  134.2435 H   0  0  0  0  0  0  0  0  0  0  0  0
  143.3860  158.6126  133.3896 H   0  0  0  0  0  0  0  0  0  0  0  0
  143.6780  157.3800  134.7880 H   0  0  0  0  0  0  0  0  0  0  0  0
  143.5890  156.0470  133.5110 H   0  0  0  0  0  0  0  0  0  0  0  0
  148.1916  156.0210  133.6348 H   0  0  0  0  0  0  0  0  0  0  0  0
  150.2406  157.2109  132.1724 H   0  0  0  0  0  0  0  0  0  0  0  0
  150.9248  159.2653  130.9379 H   0  0  0  0  0  0  0  0  0  0  0  0
  150.4109  161.7712  131.0615 H   0  0  0  0  0  0  0  0  0  0  0  0
  147.0928  161.0112  131.8692 H   0  0  0  0  0  0  0  0  0  0  0  0
  1  2  1  0
  2  3  1  0
  3  4  2  0
  3  5  1  0
  5  6  1  0
  6  7  1  0
  7  8  2  0
  7  9  1  0
  9 10  2  0
 10 11  1  0
 11 12  2  0
 11 13  1  0
 13 14  1  0
 14 15  1  0
 15 16  1  0
 15 17  2  0
 14 18  2  0
 18 19  1  0
 19 20  2  0
 20 21  1  0
 21 22  2  0
 22 23  1  0
 23 24  1  0
 23 25  1  0
 22 26  1  0
 26 27  2  0
 27 13  1  0
 27 19  1  0
  1 28  1  0
  1 29  1  0
  1 30  1  0
  5 31  1  0
  5 32  1  0
  9 33  1  0
 10 34  1  0
 16 35  1  0
 16 36  1  0
 18 37  1  0
 20 38  1  0
 21 39  1  0
 23 40  1  0
 26 41  1  0
M  END
>  <smiles>  (35) 
COC(=O)COC(=O)/C=C/C(=O)n1c(C(N)=O)cc2ccc(C(F)F)cc21

>  <score_type>  (35) 
oracle

>  <origin>  (35) 
adg

>  <m_score__min__energy>  (35) 
-7.4299999999999997

>  <m_primary>  (35) 
energy

$$$$
37:0
     RDKit          3D

 50 51  0  0  1  0  0  0  0  0999 V2000
  144.1130  155.1650  134.6820 C   0  0  0  0  0  0  0  0  0  0  0  0
  145.3580  154.3110  134.4990 C   0  0  0  0  0  0  0  0  0  0  0  0
  145.5890  153.7350  135.8830 C   0  0  0  0  0  0  0  0  0  0  0  0
  145.0030  153.3120  133.4920 C   0  0  0  0  0  0  0  0  0  0  0  0
  144.0380  152.5100  133.5570 O   0  0  0  0  0  0  0  0  0  0  0  0
  145.7970  153.2280  132.3500 O   0  0  0  0  0  0  0  0  0  0  0  0
  146.4840  155.1900  134.0890 N   0  0  0  0  0  0  0  0  0  0  0  0
  147.7650  154.7490  134.4220 C   0  0  0  0  0  0  0  0  0  0  0  0
  148.6530  154.1900  133.3670 C   0  0  2  0  0  0  0  0  0  0  0  0
  148.5380  154.5470  132.0840 O   0  0  0  0  0  0  0  0  0  0  0  0
  148.5390  152.6730  133.4040 C   0  0  0  0  0  0  0  0  0  0  0  0
  148.1220  152.2770  132.1300 O   0  0  0  0  0  0  0  0  0  0  0  0
  146.0460  156.2860  133.3040 C   0  0  0  0  0  0  0  0  0  0  0  0
  145.3810  155.8530  132.2540 O   0  0  0  0  0  0  0  0  0  0  0  0
  146.1630  157.6580  133.3850 N   0  0  0  0  0  0  0  0  0  0  0  0
  147.0870  158.5570  133.0580 C   0  0  0  0  0  0  0  0  0  0  0  0
  148.5390  158.3460  132.8610 C   0  0  0  0  0  0  0  0  0  0  0  0
  149.0680  157.0510  132.6130 N   0  0  0  0  0  0  0  0  0  0  0  0
  149.3670  159.2910  132.9050 O   0  0  0  0  0  0  0  0  0  0  0  0
  146.6100  159.8590  133.1040 C   0  0  0  0  0  0  0  0  0  0  0  0
  145.3170  159.7590  133.4890 C   0  0  0  0  0  0  0  0  0  0  0  0
  144.3790  160.7600  133.6920 C   0  0  0  0  0  0  0  0  0  0  0  0
  143.1020  160.4380  134.0860 C   0  0  0  0  0  0  0  0  0  0  0  0
  142.7990  159.1200  134.2660 C   0  0  0  0  0  0  0  0  0  0  0  0
  141.4200  158.7740  134.6920 C   0  0  0  0  0  0  0  0  0  0  0  0
  141.3140  157.4070  134.8660 F   0  0  0  0  0  0  0  0  0  0  0  0
  141.1310  159.3830  135.9020 F   0  0  0  0  0  0  0  0  0  0  0  0
  140.4810  159.2440  133.7860 F   0  0  0  0  0  0  0  0  0  0  0  0
  143.7550  158.1200  134.0580 C   0  0  0  0  0  0  0  0  0  0  0  0
  145.0420  158.4360  133.6610 C   0  0  0  0  0  0  0  0  0  0  0  0
  143.9158  155.3003  135.7557 H   0  0  0  0  0  0  0  0  0  0  0  0
  144.2694  156.1468  134.2114 H   0  0  0  0  0  0  0  0  0  0  0  0
  143.2533  154.6655  134.2114 H   0  0  0  0  0  0  0  0  0  0  0  0
  145.2926  154.4741  136.6419 H   0  0  0  0  0  0  0  0  0  0  0  0
  144.9874  152.8223  136.0054 H   0  0  0  0  0  0  0  0  0  0  0  0
  146.6546  153.4909  136.0054 H   0  0  0  0  0  0  0  0  0  0  0  0
  146.4500  153.9670  132.1210 H   0  0  0  0  0  0  0  0  0  0  0  0
  148.2935  155.6083  134.8605 H   0  0  0  0  0  0  0  0  0  0  0  0
  147.5749  153.8867  135.0780 H   0  0  0  0  0  0  0  0  0  0  0  0
  149.6149  154.6396  133.6545 H   0  0  0  0  0  0  0  0  0  0  0  0
  147.6690  154.3000  131.6720 H   0  0  0  0  0  0  0  0  0  0  0  0
  149.5147  152.2239  133.6416 H   0  0  0  0  0  0  0  0  0  0  0  0
  147.8273  152.3455  134.1761 H   0  0  0  0  0  0  0  0  0  0  0  0
  147.3120  152.7810  131.8540 H   0  0  0  0  0  0  0  0  0  0  0  0
  148.8930  156.6570  131.6480 H   0  0  0  0  0  0  0  0  0  0  0  0
  149.6030  156.4990  133.3230 H   0  0  0  0  0  0  0  0  0  0  0  0
  147.1666  160.7798  132.8753 H   0  0  0  0  0  0  0  0  0  0  0  0
  144.6572  161.8130  133.5376 H   0  0  0  0  0  0  0  0  0  0  0  0
  142.3465  161.2202  134.2513 H   0  0  0  0  0  0  0  0  0  0  0  0
  143.4792  157.0664  134.2125 H   0  0  0  0  0  0  0  0  0  0  0  0
  1  2  1  0
  2  3  1  0
  2  4  1  0
  4  5  2  0
  4  6  1  0
  2  7  1  0
  7  8  1  0
  8  9  1  0
  9 10  1  0
  9 11  1  0
 11 12  1  0
  7 13  1  0
 13 14  2  0
 13 15  1  0
 15 16  1  0
 16 17  1  0
 17 18  1  0
 17 19  2  0
 16 20  2  0
 20 21  1  0
 21 22  2  0
 22 23  1  0
 23 24  2  0
 24 25  1  0
 25 26  1  0
 25 27  1  0
 25 28  1  0
 24 29  1  0
 29 30  2  0
 30 15  1  0
 30 21  1  0
  1 31  1  0
  1 32  1  0
  1 33  1  0
  3 34  1  0
  3 35  1  0
  3 36  1  0
  6 37  1  0
  8 38  1  0
  8 39  1  0
  9 40  1  1
 10 41  1  0
 11 42  1  0
 11 43  1  0
 12 44  1  0
 18 45  1  0
 18 46  1  0
 20 47  1  0
 22 48  1  0
 23 49  1  0
 29 50  1  0
M  END
>  <smiles>  (36) 
CC(C)(C(=O)O)N(CC(O)CO)C(=O)n1c(C(N)=O)cc2ccc(C(F)(F)F)cc21

>  <score_type>  (36) 
oracle

>  <origin>  (36) 
adg

>  <m_score__min__energy>  (36) 
-6.2300000000000004

>  <m_primary>  (36) 
energy

$$$$
38:0
     RDKit          3D

 54 55  0  0  0  0  0  0  0  0999 V2000
  141.0850  156.4160  135.0080 C   0  0  0  0  0  0  0  0  0  0  0  0
  141.0910  157.7980  134.4970 N   0  0  0  0  0  0  0  0  0  0  0  0
  139.7990  158.4350  134.4100 C   0  0  0  0  0  0  0  0  0  0  0  0
  139.5090  158.9350  133.0180 C   0  0  0  0  0  0  0  0  0  0  0  0
  139.9690  160.0520  132.6180 O   0  0  0  0  0  0  0  0  0  0  0  0
  138.7090  158.0980  132.1950 N   0  0  0  0  0  0  0  0  0  0  0  0
  138.4210  158.5650  130.8580 C   0  0  0  0  0  0  0  0  0  0  0  0
  137.5530  159.7810  130.8180 C   0  0  0  0  0  0  0  0  0  0  0  0
  138.2900  160.9420  130.8190 O   0  0  0  0  0  0  0  0  0  0  0  0
  142.3190  158.4100  134.1330 C   0  0  0  0  0  0  0  0  0  0  0  0
  142.5190  159.7630  134.1160 C   0  0  0  0  0  0  0  0  0  0  0  0
  143.7370  160.3420  133.7600 C   0  0  0  0  0  0  0  0  0  0  0  0
  144.7540  159.4780  133.4170 C   0  0  0  0  0  0  0  0  0  0  0  0
  146.0500  159.7300  133.0280 C   0  0  0  0  0  0  0  0  0  0  0  0
  146.7130  158.5250  132.7830 C   0  0  0  0  0  0  0  0  0  0  0  0
  148.0820  158.4820  132.3600 C   0  0  0  0  0  0  0  0  0  0  0  0
  149.0160  157.4410  132.5010 N   0  0  0  0  0  0  0  0  0  0  0  0
  148.5350  159.5290  131.7680 O   0  0  0  0  0  0  0  0  0  0  0  0
  145.8120  157.5530  133.0270 N   0  0  0  0  0  0  0  0  0  0  0  0
  146.0120  156.1550  132.9200 C   0  0  0  0  0  0  0  0  0  0  0  0
  147.0830  155.7280  132.3540 O   0  0  0  0  0  0  0  0  0  0  0  0
  145.1720  155.1750  133.3620 O   0  0  0  0  0  0  0  0  0  0  0  0
  144.5050  154.2120  132.6060 C   0  0  0  0  0  0  0  0  0  0  0  0
  145.0450  152.8120  132.8390 C   0  0  0  0  0  0  0  0  0  0  0  0
  143.0700  154.1710  133.1500 C   0  0  0  0  0  0  0  0  0  0  0  0
  144.3800  154.5220  131.1510 C   0  0  0  0  0  0  0  0  0  0  0  0
  144.6250  158.1140  133.4110 C   0  0  0  0  0  0  0  0  0  0  0  0
  143.3910  157.6070  133.7740 C   0  0  0  0  0  0  0  0  0  0  0  0
  141.0851  156.4318  136.1079 H   0  0  0  0  0  0  0  0  0  0  0  0
  140.1846  155.8962  134.6488 H   0  0  0  0  0  0  0  0  0  0  0  0
  141.9809  155.8884  134.6488 H   0  0  0  0  0  0  0  0  0  0  0  0
  139.0245  157.7076  134.6947 H   0  0  0  0  0  0  0  0  0  0  0  0
  139.8004  159.3006  135.0887 H   0  0  0  0  0  0  0  0  0  0  0  0
  138.3540  157.1810  132.5750 H   0  0  0  0  0  0  0  0  0  0  0  0
  139.3732  158.8020  130.3608 H   0  0  0  0  0  0  0  0  0  0  0  0
  137.8694  157.7606  130.3494 H   0  0  0  0  0  0  0  0  0  0  0  0
  136.9408  159.7501  129.9046 H   0  0  0  0  0  0  0  0  0  0  0  0
  136.9236  159.7781  131.7201 H   0  0  0  0  0  0  0  0  0  0  0  0
  138.3720  161.2530  131.7750 H   0  0  0  0  0  0  0  0  0  0  0  0
  141.6839  160.4224  134.3949 H   0  0  0  0  0  0  0  0  0  0  0  0
  143.8784  161.4328  133.7534 H   0  0  0  0  0  0  0  0  0  0  0  0
  146.4966  160.7300  132.9254 H   0  0  0  0  0  0  0  0  0  0  0  0
  149.6570  157.3460  133.3460 H   0  0  0  0  0  0  0  0  0  0  0  0
  149.0620  156.7360  131.7060 H   0  0  0  0  0  0  0  0  0  0  0  0
  145.1181  152.6224  133.9201 H   0  0  0  0  0  0  0  0  0  0  0  0
  144.3660  152.0765  132.3829 H   0  0  0  0  0  0  0  0  0  0  0  0
  146.0420  152.7229  132.3829 H   0  0  0  0  0  0  0  0  0  0  0  0
  143.0946  154.1717  134.2497 H   0  0  0  0  0  0  0  0  0  0  0  0
  142.5179  155.0537  132.7950 H   0  0  0  0  0  0  0  0  0  0  0  0
  142.5693  153.2582  132.7950 H   0  0  0  0  0  0  0  0  0  0  0  0
  143.9713  155.5356  131.0258 H   0  0  0  0  0  0  0  0  0  0  0  0
  145.3713  154.4653  130.6775 H   0  0  0  0  0  0  0  0  0  0  0  0
  143.7053  153.7935  130.6775 H   0  0  0  0  0  0  0  0  0  0  0  0
  143.2532  156.5157  133.7782 H   0  0  0  0  0  0  0  0  0  0  0  0
  1  2  1  0
  2  3  1  0
  3  4  1  0
  4  5  2  0
  4  6  1  0
  6  7  1  0
  7  8  1  0
  8  9  1  0
  2 10  1  0
 10 11  2  0
 11 12  1  0
 12 13  2  0
 13 14  1  0
 14 15  2  0
 15 16  1  0
 16 17  1  0
 16 18  2  0
 15 19  1  0
 19 20  1  0
 20 21  2  0
 20 22  1  0
 22 23  1  0
 23 24  1  0
 23 25  1  0
 23 26  1  0
 19 27  1  0
 27 28  2  0
 28 10  1  0
 27 13  1  0
  1 29  1  0
  1 30  1  0
  1 31  1  0
  3 32  1  0
  3 33  1  0
  6 34  1  0
  7 35  1  0
  7 36  1  0
  8 37  1  0
  8 38  1  0
  9 39  1  0
 11 40  1  0
 12 41  1  0
 14 42  1  0
 17 43  1  0
 17 44  1  0
 24 45  1  0
 24 46  1  0
 24 47  1  0
 25 48  1  0
 25 49  1  0
 25 50  1  0
 26 51  1  0
 26 52  1  0
 26 53  1  0
 28 54  1  0
M  END
>  <smiles>  (37) 
CN(CC(=O)NCCO)c1ccc2cc(C(N)=O)n(C(=O)OC(C)(C)C)c2c1

>  <score_type>  (37) 
oracle

>  <origin>  (37) 
adg

>  <m_score__min__energy>  (37) 
-8.2300000000000004

>  <m_primary>  (37) 
energy

$$$$
39:0
     RDKit          3D

 48 49  0  0  1  0  0  0  0  0999 V2000
  149.5600  159.6590  130.9500 C   0  0  0  0  0  0  0  0  0  0  0  0
  148.9590  158.5780  131.7960 C   0  0  1  0  0  0  0  0  0  0  0  0
  149.8570  157.5390  131.9830 O   0  0  0  0  0  0  0  0  0  0  0  0
  148.6040  159.1290  133.1450 C   0  0  0  0  0  0  0  0  0  0  0  0
  147.1390  159.3290  133.2910 C   0  0  0  0  0  0  0  0  0  0  0  0
  146.6720  160.5730  133.6480 C   0  0  0  0  0  0  0  0  0  0  0  0
  145.3170  160.7700  133.7850 C   0  0  0  0  0  0  0  0  0  0  0  0
  144.4670  159.7090  133.5600 C   0  0  0  0  0  0  0  0  0  0  0  0
  143.1020  159.6660  133.6370 C   0  0  0  0  0  0  0  0  0  0  0  0
  142.7030  158.3470  133.3140 C   0  0  0  0  0  0  0  0  0  0  0  0
  141.2980  158.0230  133.2780 C   0  0  0  0  0  0  0  0  0  0  0  0
  140.6900  156.7540  133.2930 N   0  0  0  0  0  0  0  0  0  0  0  0
  140.4790  159.0120  133.2120 O   0  0  0  0  0  0  0  0  0  0  0  0
  143.7970  157.6120  133.0560 N   0  0  0  0  0  0  0  0  0  0  0  0
  143.9830  156.2420  132.8390 C   0  0  0  0  0  0  0  0  0  0  0  0
  143.0650  155.4320  133.2040 O   0  0  0  0  0  0  0  0  0  0  0  0
  145.0870  155.6090  132.2380 N   0  0  0  0  0  0  0  0  0  0  0  0
  145.0710  154.2280  132.1350 O   0  0  0  0  0  0  0  0  0  0  0  0
  145.5890  153.4110  133.1310 C   0  0  0  0  0  0  0  0  0  0  0  0
  144.9210  152.3630  133.3900 O   0  0  0  0  0  0  0  0  0  0  0  0
  146.7960  153.7320  133.8220 N   0  0  0  0  0  0  0  0  0  0  0  0
  146.8150  154.3410  135.1270 C   0  0  0  0  0  0  0  0  0  0  0  0
  148.0470  153.4310  133.1740 C   0  0  0  0  0  0  0  0  0  0  0  0
  148.6600  154.6750  132.5890 C   0  0  0  0  0  0  0  0  0  0  0  0
  149.8910  154.7660  132.3670 O   0  0  0  0  0  0  0  0  0  0  0  0
  147.8190  155.7360  132.2960 O   0  0  0  0  0  0  0  0  0  0  0  0
  144.8740  158.4530  133.2040 C   0  0  0  0  0  0  0  0  0  0  0  0
  146.2480  158.2710  133.0690 C   0  0  0  0  0  0  0  0  0  0  0  0
  149.9916  160.4352  131.5990 H   0  0  0  0  0  0  0  0  0  0  0  0
  150.3498  159.2312  130.3150 H   0  0  0  0  0  0  0  0  0  0  0  0
  148.7798  160.1041  130.3150 H   0  0  0  0  0  0  0  0  0  0  0  0
  148.0635  158.2042  131.2781 H   0  0  0  0  0  0  0  0  0  0  0  0
  149.4860  156.7410  131.5310 H   0  0  0  0  0  0  0  0  0  0  0  0
  148.9462  158.4255  133.9183 H   0  0  0  0  0  0  0  0  0  0  0  0
  149.0953  160.1070  133.2551 H   0  0  0  0  0  0  0  0  0  0  0  0
  147.3744  161.4014  133.8221 H   0  0  0  0  0  0  0  0  0  0  0  0
  144.9199  161.7558  134.0688 H   0  0  0  0  0  0  0  0  0  0  0  0
  142.4374  160.5018  133.9011 H   0  0  0  0  0  0  0  0  0  0  0  0
  139.9050  156.5930  133.9850 H   0  0  0  0  0  0  0  0  0  0  0  0
  140.9660  155.9570  132.6620 H   0  0  0  0  0  0  0  0  0  0  0  0
  145.8790  156.0990  131.8340 H   0  0  0  0  0  0  0  0  0  0  0  0
  146.7905  153.5568  135.8980 H   0  0  0  0  0  0  0  0  0  0  0  0
  147.7322  154.9377  135.2399 H   0  0  0  0  0  0  0  0  0  0  0  0
  145.9368  154.9937  135.2399 H   0  0  0  0  0  0  0  0  0  0  0  0
  148.7403  153.0000  133.9113 H   0  0  0  0  0  0  0  0  0  0  0  0
  147.8588  152.7151  132.3604 H   0  0  0  0  0  0  0  0  0  0  0  0
  148.0410  156.4200  131.5690 H   0  0  0  0  0  0  0  0  0  0  0  0
  146.6390  157.2831  132.7842 H   0  0  0  0  0  0  0  0  0  0  0  0
  1  2  1  0
  2  3  1  0
  2  4  1  0
  4  5  1  0
  5  6  2  0
  6  7  1  0
  7  8  2  0
  8  9  1  0
  9 10  2  0
 10 11  1  0
 11 12  1  0
 11 13  2  0
 10 14  1  0
 14 15  1  0
 15 16  2  0
 15 17  1  0
 17 18  1  0
 18 19  1  0
 19 20  2  0
 19 21  1  0
 21 22  1  0
 21 23  1  0
 23 24  1  0
 24 25  2  0
 24 26  1  0
 14 27  1  0
 27 28  2  0
 28  5  1  0
 27  8  1  0
  1 29  1  0
  1 30  1  0
  1 31  1  0
  2 32  1  6
  3 33  1  0
  4 34  1  0
  4 35  1  0
  6 36  1  0
  7 37  1  0
  9 38  1  0
 12 39  1  0
 12 40  1  0
 17 41  1  0
 22 42  1  0
 22 43  1  0
 22 44  1  0
 23 45  1  0
 23 46  1  0
 26 47  1  0
 28 48  1  0
M  END
>  <smiles>  (38) 
CC(O)Cc1ccc2cc(C(N)=O)n(C(=O)NOC(=O)N(C)CC(=O)O)c2c1

>  <score_type>  (38) 
oracle

>  <origin>  (38) 
adg

>  <m_score__min__energy>  (38) 
-7.7599999999999998

>  <m_primary>  (38) 
energy

$$$$
41:0
     RDKit          3D

 38 39  0  0  0  0  0  0  0  0999 V2000
  144.4020  153.2510  132.7150 C   0  0  0  0  0  0  0  0  0  0  0  0
  145.6770  153.9220  132.7960 N   0  0  0  0  0  0  0  0  0  0  0  0
  146.8360  153.0980  133.1160 C   0  0  0  0  0  0  0  0  0  0  0  0
  148.0400  153.9390  133.3560 C   0  0  0  0  0  0  0  0  0  0  0  0
  148.4570  154.2370  134.5050 O   0  0  0  0  0  0  0  0  0  0  0  0
  148.7130  154.4000  132.2340 O   0  0  0  0  0  0  0  0  0  0  0  0
  145.8350  155.3430  132.5750 C   0  0  0  0  0  0  0  0  0  0  0  0
  146.3880  155.6050  131.4800 O   0  0  0  0  0  0  0  0  0  0  0  0
  145.3700  156.2510  133.5730 C   0  0  0  0  0  0  0  0  0  0  0  0
  144.8140  155.6600  134.5890 O   0  0  0  0  0  0  0  0  0  0  0  0
  145.3830  157.6490  133.6840 N   0  0  0  0  0  0  0  0  0  0  0  0
  146.5420  158.3710  133.6880 C   0  0  0  0  0  0  0  0  0  0  0  0
  147.9360  157.9960  133.7300 C   0  0  0  0  0  0  0  0  0  0  0  0
  148.3710  156.7600  133.0730 N   0  0  0  0  0  0  0  0  0  0  0  0
  148.8780  158.6020  134.2730 O   0  0  0  0  0  0  0  0  0  0  0  0
  146.1790  159.7310  133.7130 C   0  0  0  0  0  0  0  0  0  0  0  0
  144.8260  159.8380  133.7240 C   0  0  0  0  0  0  0  0  0  0  0  0
  144.0180  160.9460  133.7320 C   0  0  0  0  0  0  0  0  0  0  0  0
  142.6510  160.8120  133.7180 C   0  0  0  0  0  0  0  0  0  0  0  0
  142.1370  159.5460  133.6960 C   0  0  0  0  0  0  0  0  0  0  0  0
  140.6540  159.3550  133.6790 C   0  0  0  0  0  0  0  0  0  0  0  0
  140.1240  159.2940  134.9290 F   0  0  0  0  0  0  0  0  0  0  0  0
  140.3970  158.2300  132.9150 F   0  0  0  0  0  0  0  0  0  0  0  0
  140.1420  160.4350  132.9530 F   0  0  0  0  0  0  0  0  0  0  0  0
  142.9730  158.4310  133.6890 C   0  0  0  0  0  0  0  0  0  0  0  0
  144.3460  158.5360  133.7060 C   0  0  0  0  0  0  0  0  0  0  0  0
  144.0265  153.0534  133.7299 H   0  0  0  0  0  0  0  0  0  0  0  0
  143.6855  153.8889  132.1767 H   0  0  0  0  0  0  0  0  0  0  0  0
  144.5221  152.2993  132.1767 H   0  0  0  0  0  0  0  0  0  0  0  0
  146.6210  152.5113  134.0213 H   0  0  0  0  0  0  0  0  0  0  0  0
  147.0382  152.4326  132.2637 H   0  0  0  0  0  0  0  0  0  0  0  0
  148.2250  154.5040  131.3380 H   0  0  0  0  0  0  0  0  0  0  0  0
  149.0690  156.1450  133.5080 H   0  0  0  0  0  0  0  0  0  0  0  0
  147.9750  156.4880  132.1540 H   0  0  0  0  0  0  0  0  0  0  0  0
  146.8830  160.5762  133.7222 H   0  0  0  0  0  0  0  0  0  0  0  0
  144.4680  161.9496  133.7497 H   0  0  0  0  0  0  0  0  0  0  0  0
  141.9928  161.6933  133.7243 H   0  0  0  0  0  0  0  0  0  0  0  0
  142.5190  157.4292  133.6691 H   0  0  0  0  0  0  0  0  0  0  0  0
  1  2  1  0
  2  3  1  0
  3  4  1  0
  4  5  2  0
  4  6  1  0
  2  7  1  0
  7  8  2  0
  7  9  1  0
  9 10  2  0
  9 11  1  0
 11 12  1  0
 12 13  1  0
 13 14  1  0
 13 15  2  0
 12 16  2  0
 16 17  1  0
 17 18  2  0
 18 19  1  0
 19 20  2  0
 20 21  1  0
 21 22  1  0
 21 23  1  0
 21 24  1  0
 20 25  1  0
 25 26  2  0
 26 11  1  0
 26 17  1  0
  1 27  1  0
  1 28  1  0
  1 29  1  0
  3 30  1  0
  3 31  1  0
  6 32  1  0
 14 33  1  0
 14 34  1  0
 16 35  1  0
 18 36  1  0
 19 37  1  0
 25 38  1  0
M  END
>  <smiles>  (39) 
CN(CC(=O)O)C(=O)C(=O)n1c(C(N)=O)cc2ccc(C(F)(F)F)cc21

>  <score_type>  (39) 
oracle

>  <origin>  (39) 
adg

>  <m_score__min__energy>  (39) 
-6.2000000000000002

>  <m_primary>  (39) 
energy

$$$$
42:0
     RDKit          3D

 42 43  0  0  0  0  0  0  0  0999 V2000
  149.2370  156.8500  132.4070 N   0  0  0  0  0  0  0  0  0  0  0  0
  148.8550  158.2560  132.4620 C   0  0  0  0  0  0  0  0  0  0  0  0
  149.7460  159.0340  132.1280 O   0  0  0  0  0  0  0  0  0  0  0  0
  147.5030  158.5680  132.8910 C   0  0  0  0  0  0  0  0  0  0  0  0
  147.1550  159.9190  133.0860 C   0  0  0  0  0  0  0  0  0  0  0  0
  145.8500  159.9490  133.4340 C   0  0  0  0  0  0  0  0  0  0  0  0
  145.0430  161.0320  133.7320 C   0  0  0  0  0  0  0  0  0  0  0  0
  143.7290  160.8510  134.0730 C   0  0  0  0  0  0  0  0  0  0  0  0
  143.2530  159.5610  134.1040 C   0  0  0  0  0  0  0  0  0  0  0  0
  141.8160  159.3190  134.4750 C   0  0  0  0  0  0  0  0  0  0  0  0
  141.6910  159.6460  135.8050 F   0  0  0  0  0  0  0  0  0  0  0  0
  141.0300  160.1510  133.6710 F   0  0  0  0  0  0  0  0  0  0  0  0
  144.0740  158.4790  133.8030 C   0  0  0  0  0  0  0  0  0  0  0  0
  145.4100  158.6490  133.4550 C   0  0  0  0  0  0  0  0  0  0  0  0
  146.4340  157.7930  133.1230 N   0  0  0  0  0  0  0  0  0  0  0  0
  146.2280  156.4120  133.0450 C   0  0  0  0  0  0  0  0  0  0  0  0
  147.3210  155.7050  133.1140 O   0  0  0  0  0  0  0  0  0  0  0  0
  145.0480  155.6240  132.8940 C   0  0  0  0  0  0  0  0  0  0  0  0
  144.0030  155.6080  133.5640 O   0  0  0  0  0  0  0  0  0  0  0  0
  145.0050  154.6820  131.8110 O   0  0  0  0  0  0  0  0  0  0  0  0
  144.5720  153.3810  132.1880 C   0  0  0  0  0  0  0  0  0  0  0  0
  145.7830  152.5300  132.3910 C   0  0  0  0  0  0  0  0  0  0  0  0
  145.6440  151.2770  132.5410 O   0  0  0  0  0  0  0  0  0  0  0  0
  147.0780  153.1210  132.4160 N   0  0  0  0  0  0  0  0  0  0  0  0
  148.2070  152.2570  132.6140 C   0  0  0  0  0  0  0  0  0  0  0  0
  149.5120  152.9470  132.2260 C   0  0  0  0  0  0  0  0  0  0  0  0
  149.2530  154.3370  132.2380 O   0  0  0  0  0  0  0  0  0  0  0  0
  149.3680  156.3490  133.3250 H   0  0  0  0  0  0  0  0  0  0  0  0
  149.3690  156.3760  131.4820 H   0  0  0  0  0  0  0  0  0  0  0  0
  147.8213  160.7873  132.9755 H   0  0  0  0  0  0  0  0  0  0  0  0
  145.4607  162.0489  133.6947 H   0  0  0  0  0  0  0  0  0  0  0  0
  143.0788  161.7052  134.3130 H   0  0  0  0  0  0  0  0  0  0  0  0
  141.4984  158.2770  134.3224 H   0  0  0  0  0  0  0  0  0  0  0  0
  143.6557  157.4624  133.8412 H   0  0  0  0  0  0  0  0  0  0  0  0
  143.9942  153.4364  133.1224 H   0  0  0  0  0  0  0  0  0  0  0  0
  143.9306  152.9508  131.4048 H   0  0  0  0  0  0  0  0  0  0  0  0
  147.1970  154.1630  132.2910 H   0  0  0  0  0  0  0  0  0  0  0  0
  148.2559  151.9696  133.6747 H   0  0  0  0  0  0  0  0  0  0  0  0
  148.0808  151.3709  131.9745 H   0  0  0  0  0  0  0  0  0  0  0  0
  150.3014  152.7017  132.9517 H   0  0  0  0  0  0  0  0  0  0  0  0
  149.8563  152.6162  131.2350 H   0  0  0  0  0  0  0  0  0  0  0  0
  148.4500  154.4820  131.6730 H   0  0  0  0  0  0  0  0  0  0  0  0
  1  2  1  0
  2  3  2  0
  2  4  1  0
  4  5  2  0
  5  6  1  0
  6  7  2  0
  7  8  1  0
  8  9  2  0
  9 10  1  0
 10 11  1  0
 10 12  1  0
  9 13  1  0
 13 14  2  0
 14 15  1  0
 15 16  1  0
 16 17  2  0
 16 18  1  0
 18 19  2  0
 18 20  1  0
 20 21  1  0
 21 22  1  0
 22 23  2  0
 22 24  1  0
 24 25  1  0
 25 26  1  0
 26 27  1  0
 15  4  1  0
 14  6  1  0
  1 28  1  0
  1 29  1  0
  5 30  1  0
  7 31  1  0
  8 32  1  0
 10 33  1  0
 13 34  1  0
 21 35  1  0
 21 36  1  0
 24 37  1  0
 25 38  1  0
 25 39  1  0
 26 40  1  0
 26 41  1  0
 27 42  1  0
M  END
>  <smiles>  (40) 
NC(=O)c1cc2ccc(C(F)F)cc2n1C(=O)C(=O)OCC(=O)NCCO

>  <score_type>  (40) 
oracle

>  <origin>  (40) 
adg

>  <m_score__min__energy>  (40) 
-5.8700000000000001

>  <m_primary>  (40) 
energy

$$$$
43:0
     RDKit          3D

 56 57  0  0  1  0  0  0  0  0999 V2000
  140.6040  155.3800  133.3500 C   0  0  0  0  0  0  0  0  0  0  0  0
  139.7920  156.4150  134.0830 C   0  0  2  0  0  0  0  0  0  0  0  0
  139.6050  157.6680  133.2920 C   0  0  0  0  0  0  0  0  0  0  0  0
  140.2710  157.8110  132.2350 O   0  0  0  0  0  0  0  0  0  0  0  0
  138.7350  158.6770  133.6650 O   0  0  0  0  0  0  0  0  0  0  0  0
  140.4870  156.7350  135.3240 N   0  0  0  0  0  0  0  0  0  0  0  0
  141.3800  155.7840  135.9250 C   0  0  0  0  0  0  0  0  0  0  0  0
  140.2420  158.0220  135.9070 C   0  0  0  0  0  0  0  0  0  0  0  0
  139.1020  158.2010  136.3930 O   0  0  0  0  0  0  0  0  0  0  0  0
  141.3290  159.0080  135.8910 C   0  0  0  0  0  0  0  0  0  0  0  0
  141.7300  159.2490  134.5320 N   0  0  0  0  0  0  0  0  0  0  0  0
  143.0550  159.6120  134.1720 C   0  0  0  0  0  0  0  0  0  0  0  0
  143.4140  160.9230  134.0940 C   0  0  0  0  0  0  0  0  0  0  0  0
  144.7010  161.2470  133.7510 C   0  0  0  0  0  0  0  0  0  0  0  0
  145.6170  160.2500  133.4890 C   0  0  0  0  0  0  0  0  0  0  0  0
  146.9410  160.3050  133.1320 C   0  0  0  0  0  0  0  0  0  0  0  0
  147.4300  158.9980  132.9810 C   0  0  0  0  0  0  0  0  0  0  0  0
  148.7920  158.6950  132.6090 C   0  0  0  0  0  0  0  0  0  0  0  0
  149.1560  157.3040  132.4740 N   0  0  0  0  0  0  0  0  0  0  0  0
  149.7030  159.5020  132.3880 O   0  0  0  0  0  0  0  0  0  0  0  0
  146.3920  158.1630  133.2480 N   0  0  0  0  0  0  0  0  0  0  0  0
  146.3980  156.7460  133.2270 C   0  0  0  0  0  0  0  0  0  0  0  0
  146.8380  156.1560  132.1780 O   0  0  0  0  0  0  0  0  0  0  0  0
  145.9760  155.9210  134.2290 O   0  0  0  0  0  0  0  0  0  0  0  0
  145.0670  154.8640  134.1040 C   0  0  0  0  0  0  0  0  0  0  0  0
  144.4690  154.5920  135.4630 C   0  0  0  0  0  0  0  0  0  0  0  0
  143.9360  155.1520  133.1510 C   0  0  0  0  0  0  0  0  0  0  0  0
  145.8330  153.6670  133.5630 C   0  0  0  0  0  0  0  0  0  0  0  0
  145.3010  158.9180  133.5540 C   0  0  0  0  0  0  0  0  0  0  0  0
  143.9890  158.6150  133.9050 C   0  0  0  0  0  0  0  0  0  0  0  0
  141.1133  154.7309  134.0775 H   0  0  0  0  0  0  0  0  0  0  0  0
  139.9393  154.7722  132.7186 H   0  0  0  0  0  0  0  0  0  0  0  0
  141.3525  155.8810  132.7186 H   0  0  0  0  0  0  0  0  0  0  0  0
  138.7912  155.9979  134.2685 H   0  0  0  0  0  0  0  0  0  0  0  0
  138.1620  158.6540  134.4880 H   0  0  0  0  0  0  0  0  0  0  0  0
  141.3109  155.8576  137.0204 H   0  0  0  0  0  0  0  0  0  0  0  0
  141.1018  154.7682  135.6075 H   0  0  0  0  0  0  0  0  0  0  0  0
  142.4112  155.9979  135.6075 H   0  0  0  0  0  0  0  0  0  0  0  0
  140.9796  159.9478  136.3435 H   0  0  0  0  0  0  0  0  0  0  0  0
  142.1846  158.6235  136.4656 H   0  0  0  0  0  0  0  0  0  0  0  0
  140.9990  159.1470  133.7850 H   0  0  0  0  0  0  0  0  0  0  0  0
  142.6789  161.7139  134.3040 H   0  0  0  0  0  0  0  0  0  0  0  0
  145.0032  162.3026  133.6847 H   0  0  0  0  0  0  0  0  0  0  0  0
  147.5253  161.2257  132.9874 H   0  0  0  0  0  0  0  0  0  0  0  0
  148.6020  156.6800  131.8570 H   0  0  0  0  0  0  0  0  0  0  0  0
  149.9780  156.9210  132.9990 H   0  0  0  0  0  0  0  0  0  0  0  0
  145.1737  154.9125  136.2445 H   0  0  0  0  0  0  0  0  0  0  0  0
  143.5269  155.1502  135.5674 H   0  0  0  0  0  0  0  0  0  0  0  0
  144.2706  153.5151  135.5674 H   0  0  0  0  0  0  0  0  0  0  0  0
  143.0251  155.3839  133.7224 H   0  0  0  0  0  0  0  0  0  0  0  0
  144.2002  156.0115  132.5174 H   0  0  0  0  0  0  0  0  0  0  0  0
  143.7570  154.2708  132.5174 H   0  0  0  0  0  0  0  0  0  0  0  0
  146.2166  153.0676  134.4018 H   0  0  0  0  0  0  0  0  0  0  0  0
  145.1618  153.0497  132.9479 H   0  0  0  0  0  0  0  0  0  0  0  0
  146.6748  154.0179  132.9479 H   0  0  0  0  0  0  0  0  0  0  0  0
  143.6822  157.5609  133.9732 H   0  0  0  0  0  0  0  0  0  0  0  0
  1  2  1  0
  2  3  1  0
  3  4  2  0
  3  5  1  0
  2  6  1  0
  6  7  1  0
  6  8  1  0
  8  9  2  0
  8 10  1  0
 10 11  1  0
 11 12  1  0
 12 13  2  0
 13 14  1  0
 14 15  2  0
 15 16  1  0
 16 17  2  0
 17 18  1  0
 18 19  1  0
 18 20  2  0
 17 21  1  0
 21 22  1  0
 22 23  2  0
 22 24  1  0
 24 25  1  0
 25 26  1  0
 25 27  1  0
 25 28  1  0
 21 29  1  0
 29 30  2  0
 30 12  1  0
 29 15  1  0
  1 31  1  0
  1 32  1  0
  1 33  1  0
  2 34  1  1
  5 35  1  0
  7 36  1  0
  7 37  1  0
  7 38  1  0
 10 39  1  0
 10 40  1  0
 11 41  1  0
 13 42  1  0
 14 43  1  0
 16 44  1  0
 19 45  1  0
 19 46  1  0
 26 47  1  0
 26 48  1  0
 26 49  1  0
 27 50  1  0
 27 51  1  0
 27 52  1  0
 28 53  1  0
 28 54  1  0
 28 55  1  0
 30 56  1  0
M  END
>  <smiles>  (41) 
CC(C(=O)O)N(C)C(=O)CNc1ccc2cc(C(N)=O)n(C(=O)OC(C)(C)C)c2c1

>  <score_type>  (41) 
oracle

>  <origin>  (41) 
adg

>  <m_score__min__energy>  (41) 
-8.2100000000000009

>  <m_primary>  (41) 
energy

$$$$
44:0
     RDKit          3D

 45 46  0  0  0  0  0  0  0  0999 V2000
  146.8600  153.5200  133.3680 C   0  0  0  0  0  0  0  0  0  0  0  0
  145.9580  154.6560  133.3360 N   0  0  0  0  0  0  0  0  0  0  0  0
  144.6460  154.4790  132.7840 C   0  0  0  0  0  0  0  0  0  0  0  0
  144.0460  155.4470  132.2100 O   0  0  0  0  0  0  0  0  0  0  0  0
  143.9740  153.1630  132.8780 C   0  0  0  0  0  0  0  0  0  0  0  0
  142.5960  153.2880  133.3740 C   0  0  0  0  0  0  0  0  0  0  0  0
  142.1600  152.4340  134.1920 O   0  0  0  0  0  0  0  0  0  0  0  0
  141.8190  154.3380  132.9290 O   0  0  0  0  0  0  0  0  0  0  0  0
  146.3530  155.9530  133.8440 C   0  0  0  0  0  0  0  0  0  0  0  0
  146.0150  156.1650  135.0350 O   0  0  0  0  0  0  0  0  0  0  0  0
  147.0720  156.8710  132.9930 C   0  0  0  0  0  0  0  0  0  0  0  0
  147.8810  156.3090  132.1640 O   0  0  0  0  0  0  0  0  0  0  0  0
  147.0010  158.2710  132.9450 N   0  0  0  0  0  0  0  0  0  0  0  0
  147.9280  159.2110  132.7270 C   0  0  0  0  0  0  0  0  0  0  0  0
  149.2510  159.1270  132.1300 C   0  0  0  0  0  0  0  0  0  0  0  0
  149.9820  157.9650  131.8680 N   0  0  0  0  0  0  0  0  0  0  0  0
  149.8210  160.2300  131.7890 O   0  0  0  0  0  0  0  0  0  0  0  0
  147.3860  160.4850  132.9980 C   0  0  0  0  0  0  0  0  0  0  0  0
  146.0940  160.2880  133.3840 C   0  0  0  0  0  0  0  0  0  0  0  0
  145.1450  161.2230  133.7520 C   0  0  0  0  0  0  0  0  0  0  0  0
  143.8830  160.8100  134.1110 C   0  0  0  0  0  0  0  0  0  0  0  0
  143.6200  159.4600  134.0860 C   0  0  0  0  0  0  0  0  0  0  0  0
  142.2510  158.9870  134.4740 C   0  0  0  0  0  0  0  0  0  0  0  0
  142.0640  157.2910  133.9000 P   0  0  0  0  0  0  0  0  0  0  0  0
  140.6740  156.7420  134.1530 O   0  0  0  0  0  0  0  0  0  0  0  0
  142.3490  157.1900  132.2350 O   0  0  0  0  0  0  0  0  0  0  0  0
  143.1610  156.3170  134.7340 O   0  0  0  0  0  0  0  0  0  0  0  0
  144.5930  158.5250  133.7110 C   0  0  0  0  0  0  0  0  0  0  0  0
  145.8680  158.9390  133.3470 C   0  0  0  0  0  0  0  0  0  0  0  0
  147.0737  153.2508  134.4129 H   0  0  0  0  0  0  0  0  0  0  0  0
  146.3917  152.6655  132.8577 H   0  0  0  0  0  0  0  0  0  0  0  0
  147.7984  153.7825  132.8577 H   0  0  0  0  0  0  0  0  0  0  0  0
  143.9526  152.7020  131.8795 H   0  0  0  0  0  0  0  0  0  0  0  0
  144.5381  152.5410  133.5886 H   0  0  0  0  0  0  0  0  0  0  0  0
  142.0920  155.3010  133.1700 H   0  0  0  0  0  0  0  0  0  0  0  0
  151.0230  157.9520  131.9620 H   0  0  0  0  0  0  0  0  0  0  0  0
  149.5160  157.0940  131.5770 H   0  0  0  0  0  0  0  0  0  0  0  0
  147.9058  161.4508  132.9140 H   0  0  0  0  0  0  0  0  0  0  0  0
  145.3980  162.2935  133.7578 H   0  0  0  0  0  0  0  0  0  0  0  0
  143.1104  161.5345  134.4079 H   0  0  0  0  0  0  0  0  0  0  0  0
  142.1390  159.0253  135.5676 H   0  0  0  0  0  0  0  0  0  0  0  0
  141.4822  159.6303  134.0212 H   0  0  0  0  0  0  0  0  0  0  0  0
  142.2400  156.2660  131.9150 H   0  0  0  0  0  0  0  0  0  0  0  0
  143.9990  156.1580  134.2380 H   0  0  0  0  0  0  0  0  0  0  0  0
  144.3453  157.4533  133.7047 H   0  0  0  0  0  0  0  0  0  0  0  0
  1  2  1  0
  2  3  1  0
  3  4  2  0
  3  5  1  0
  5  6  1  0
  6  7  2  0
  6  8  1  0
  2  9  1  0
  9 10  2  0
  9 11  1  0
 11 12  2  0
 11 13  1  0
 13 14  1  0
 14 15  1  0
 15 16  1  0
 15 17  2  0
 14 18  2  0
 18 19  1  0
 19 20  2  0
 20 21  1  0
 21 22  2  0
 22 23  1  0
 23 24  1  0
 24 25  2  0
 24 26  1  0
 24 27  1  0
 22 28  1  0
 28 29  2  0
 29 13  1  0
 29 19  1  0
  1 30  1  0
  1 31  1  0
  1 32  1  0
  5 33  1  0
  5 34  1  0
  8 35  1  0
 16 36  1  0
 16 37  1  0
 18 38  1  0
 20 39  1  0
 21 40  1  0
 23 41  1  0
 23 42  1  0
 26 43  1  0
 27 44  1  0
 28 45  1  0
M  END
>  <smiles>  (42) 
CN(C(=O)CC(=O)O)C(=O)C(=O)n1c(C(N)=O)cc2ccc(CP(=O)(O)O)cc21

>  <score_type>  (42) 
oracle

>  <origin>  (42) 
adg

>  <m_score__min__energy>  (42) 
-6.1799999999999997

>  <m_primary>  (42) 
energy

$$$$
45:0
     RDKit          3D

 35 36  0  0  0  0  0  0  0  0999 V2000
  148.9470  156.5360  132.6020 N   0  0  0  0  0  0  0  0  0  0  0  0
  148.6500  157.9460  132.7420 C   0  0  0  0  0  0  0  0  0  0  0  0
  149.6240  158.7040  132.5540 O   0  0  0  0  0  0  0  0  0  0  0  0
  147.3020  158.3540  133.0730 C   0  0  0  0  0  0  0  0  0  0  0  0
  146.8850  159.6900  132.9830 C   0  0  0  0  0  0  0  0  0  0  0  0
  145.5670  159.7730  133.3590 C   0  0  0  0  0  0  0  0  0  0  0  0
  144.7050  160.8450  133.4410 C   0  0  0  0  0  0  0  0  0  0  0  0
  143.4130  160.6660  133.8500 C   0  0  0  0  0  0  0  0  0  0  0  0
  143.0070  159.3920  134.1730 C   0  0  0  0  0  0  0  0  0  0  0  0
  141.5970  159.2070  134.6170 C   0  0  0  0  0  0  0  0  0  0  0  0
  140.7990  160.0990  133.9000 F   0  0  0  0  0  0  0  0  0  0  0  0
  141.1160  157.9550  134.3860 F   0  0  0  0  0  0  0  0  0  0  0  0
  143.8760  158.3230  134.0870 C   0  0  0  0  0  0  0  0  0  0  0  0
  145.1970  158.4770  133.6740 C   0  0  0  0  0  0  0  0  0  0  0  0
  146.2440  157.6430  133.4980 N   0  0  0  0  0  0  0  0  0  0  0  0
  146.1970  156.2490  133.7340 C   0  0  0  0  0  0  0  0  0  0  0  0
  145.7440  155.8840  134.8750 O   0  0  0  0  0  0  0  0  0  0  0  0
  146.5760  155.2580  132.8910 O   0  0  0  0  0  0  0  0  0  0  0  0
  145.8680  154.0740  132.6270 C   0  0  0  0  0  0  0  0  0  0  0  0
  146.5350  152.9130  132.9310 O   0  0  0  0  0  0  0  0  0  0  0  0
  148.1330  153.3100  133.3140 P   0  0  0  0  0  0  0  0  0  0  0  0
  148.9700  152.0750  133.5450 O   0  0  0  0  0  0  0  0  0  0  0  0
  148.1060  154.2940  134.6870 O   0  0  0  0  0  0  0  0  0  0  0  0
  148.7470  154.1750  131.9820 O   0  0  0  0  0  0  0  0  0  0  0  0
  148.4910  155.9080  133.3050 H   0  0  0  0  0  0  0  0  0  0  0  0
  149.5780  156.1990  131.8420 H   0  0  0  0  0  0  0  0  0  0  0  0
  147.5124  160.5349  132.6629 H   0  0  0  0  0  0  0  0  0  0  0  0
  145.0591  161.8520  133.1754 H   0  0  0  0  0  0  0  0  0  0  0  0
  142.7182  161.5160  133.9188 H   0  0  0  0  0  0  0  0  0  0  0  0
  141.5737  159.3801  135.7031 H   0  0  0  0  0  0  0  0  0  0  0  0
  143.5140  157.3188  134.3528 H   0  0  0  0  0  0  0  0  0  0  0  0
  144.9380  154.0957  133.2141 H   0  0  0  0  0  0  0  0  0  0  0  0
  145.7015  154.0543  131.5398 H   0  0  0  0  0  0  0  0  0  0  0  0
  147.1860  154.6350  134.8830 H   0  0  0  0  0  0  0  0  0  0  0  0
  148.0520  154.6030  131.4460 H   0  0  0  0  0  0  0  0  0  0  0  0
  1  2  1  0
  2  3  2  0
  2  4  1  0
  4  5  2  0
  5  6  1  0
  6  7  2  0
  7  8  1  0
  8  9  2  0
  9 10  1  0
 10 11  1  0
 10 12  1  0
  9 13  1  0
 13 14  2  0
 14 15  1  0
 15 16  1  0
 16 17  2  0
 16 18  1  0
 18 19  1  0
 19 20  1  0
 20 21  1  0
 21 22  2  0
 21 23  1  0
 21 24  1  0
 15  4  1  0
 14  6  1  0
  1 25  1  0
  1 26  1  0
  5 27  1  0
  7 28  1  0
  8 29  1  0
 10 30  1  0
 13 31  1  0
 19 32  1  0
 19 33  1  0
 23 34  1  0
 24 35  1  0
M  END
>  <smiles>  (43) 
NC(=O)c1cc2ccc(C(F)F)cc2n1C(=O)OCOP(=O)(O)O

>  <score_type>  (43) 
oracle

>  <origin>  (43) 
adg

>  <m_score__min__energy>  (43) 
-5.6699999999999999

>  <m_primary>  (43) 
energy

$$$$
46:0
     RDKit          3D

 48 49  0  0  1  0  0  0  0  0999 V2000
  139.0630  157.9370  133.7990 C   0  0  0  0  0  0  0  0  0  0  0  0
  139.7640  158.1410  134.9340 O   0  0  0  0  0  0  0  0  0  0  0  0
  140.6530  159.1170  135.1010 C   0  0  0  0  0  0  0  0  0  0  0  0
  141.8240  159.2910  134.2170 C   0  0  2  0  0  0  0  0  0  0  0  0
  141.7140  160.5750  133.3820 C   0  0  0  0  0  0  0  0  0  0  0  0
  142.1690  158.2270  133.3240 N   0  0  0  0  0  0  0  0  0  0  0  0
  142.5760  156.9860  133.9310 C   0  0  0  0  0  0  0  0  0  0  0  0
  142.6230  156.8560  135.1820 O   0  0  0  0  0  0  0  0  0  0  0  0
  142.9370  155.8740  133.1300 N   0  0  0  0  0  0  0  0  0  0  0  0
  143.3370  154.6560  133.8500 C   0  0  0  0  0  0  0  0  0  0  0  0
  144.7240  154.4230  133.6940 O   0  0  0  0  0  0  0  0  0  0  0  0
  145.4460  155.0180  132.6820 C   0  0  0  0  0  0  0  0  0  0  0  0
  144.8820  154.9570  131.5330 O   0  0  0  0  0  0  0  0  0  0  0  0
  146.6960  155.6570  132.8110 N   0  0  0  0  0  0  0  0  0  0  0  0
  147.9160  155.0990  132.7760 C   0  0  0  0  0  0  0  0  0  0  0  0
  148.3560  153.7410  132.6060 C   0  0  0  0  0  0  0  0  0  0  0  0
  147.5550  152.5810  132.5070 N   0  0  0  0  0  0  0  0  0  0  0  0
  149.6130  153.5150  132.5320 O   0  0  0  0  0  0  0  0  0  0  0  0
  148.8240  156.1570  132.9500 C   0  0  0  0  0  0  0  0  0  0  0  0
  148.1380  157.3370  133.0870 C   0  0  0  0  0  0  0  0  0  0  0  0
  148.5760  158.6300  133.2770 C   0  0  0  0  0  0  0  0  0  0  0  0
  147.6710  159.6630  133.3870 C   0  0  0  0  0  0  0  0  0  0  0  0
  146.3300  159.3630  133.3020 C   0  0  0  0  0  0  0  0  0  0  0  0
  145.3370  160.4740  133.4190 C   0  0  0  0  0  0  0  0  0  0  0  0
  145.9040  158.0440  133.1080 C   0  0  0  0  0  0  0  0  0  0  0  0
  146.8060  157.0050  132.9970 C   0  0  0  0  0  0  0  0  0  0  0  0
  138.0351  157.6378  134.0517 H   0  0  0  0  0  0  0  0  0  0  0  0
  139.0403  158.8658  133.2101 H   0  0  0  0  0  0  0  0  0  0  0  0
  139.5423  157.1411  133.2101 H   0  0  0  0  0  0  0  0  0  0  0  0
  140.0862  160.0580  135.0440 H   0  0  0  0  0  0  0  0  0  0  0  0
  141.1301  158.8243  136.0479 H   0  0  0  0  0  0  0  0  0  0  0  0
  142.6357  159.3235  134.9587 H   0  0  0  0  0  0  0  0  0  0  0  0
  141.6396  161.4435  134.0530 H   0  0  0  0  0  0  0  0  0  0  0  0
  142.6067  160.6773  132.7474 H   0  0  0  0  0  0  0  0  0  0  0  0
  140.8169  160.5240  132.7474 H   0  0  0  0  0  0  0  0  0  0  0  0
  142.1780  158.2320  132.2950 H   0  0  0  0  0  0  0  0  0  0  0  0
  142.9220  155.9090  132.0880 H   0  0  0  0  0  0  0  0  0  0  0  0
  143.1077  154.7753  134.9192 H   0  0  0  0  0  0  0  0  0  0  0  0
  142.7831  153.7999  133.4375 H   0  0  0  0  0  0  0  0  0  0  0  0
  147.3150  152.0710  133.4070 H   0  0  0  0  0  0  0  0  0  0  0  0
  147.2140  152.2270  131.5670 H   0  0  0  0  0  0  0  0  0  0  0  0
  149.9190  156.0546  132.9729 H   0  0  0  0  0  0  0  0  0  0  0  0
  149.6542  158.8383  133.3412 H   0  0  0  0  0  0  0  0  0  0  0  0
  148.0103  160.6983  133.5385 H   0  0  0  0  0  0  0  0  0  0  0  0
  145.1475  160.6860  134.4816 H   0  0  0  0  0  0  0  0  0  0  0  0
  145.7360  161.3753  132.9308 H   0  0  0  0  0  0  0  0  0  0  0  0
  144.3967  160.1783  132.9308 H   0  0  0  0  0  0  0  0  0  0  0  0
  144.8269  157.8307  133.0426 H   0  0  0  0  0  0  0  0  0  0  0  0
  1  2  1  0
  2  3  1  0
  3  4  1  0
  4  5  1  0
  4  6  1  0
  6  7  1  0
  7  8  2  0
  7  9  1  0
  9 10  1  0
 10 11  1  0
 11 12  1  0
 12 13  2  0
 12 14  1  0
 14 15  1  0
 15 16  1  0
 16 17  1  0
 16 18  2  0
 15 19  2  0
 19 20  1  0
 20 21  2  0
 21 22  1  0
 22 23  2  0
 23 24  1  0
 23 25  1  0
 25 26  2  0
 26 14  1  0
 26 20  1  0
  1 27  1  0
  1 28  1  0
  1 29  1  0
  3 30  1  0
  3 31  1  0
  4 32  1  1
  5 33  1  0
  5 34  1  0
  5 35  1  0
  6 36  1  0
  9 37  1  0
 10 38  1  0
 10 39  1  0
 17 40  1  0
 17 41  1  0
 19 42  1  0
 21 43  1  0
 22 44  1  0
 24 45  1  0
 24 46  1  0
 24 47  1  0
 25 48  1  0
M  END
>  <smiles>  (44) 
COCC(C)NC(=O)NCOC(=O)n1c(C(N)=O)cc2ccc(C)cc21

>  <score_type>  (44) 
oracle

>  <origin>  (44) 
adg

>  <m_score__min__energy>  (44) 
-8.1999999999999993

>  <m_primary>  (44) 
energy

$$$$
47:0
     RDKit          3D

 38 39  0  0  0  0  0  0  0  0999 V2000
  145.8370  153.4600  133.2490 C   0  0  0  0  0  0  0  0  0  0  0  0
  145.8980  154.5180  132.2310 N   0  0  0  0  0  0  0  0  0  0  0  0
  145.6070  155.7550  132.9100 C   0  0  0  0  0  0  0  0  0  0  0  0
  146.7130  156.7110  133.0350 C   0  0  0  0  0  0  0  0  0  0  0  0
  147.8700  156.1430  133.1540 O   0  0  0  0  0  0  0  0  0  0  0  0
  146.6970  158.1130  133.0360 N   0  0  0  0  0  0  0  0  0  0  0  0
  147.6730  159.0250  132.9210 C   0  0  0  0  0  0  0  0  0  0  0  0
  149.0350  158.8910  132.4300 C   0  0  0  0  0  0  0  0  0  0  0  0
  149.5660  157.5700  132.1740 N   0  0  0  0  0  0  0  0  0  0  0  0
  149.8270  159.8310  132.1940 O   0  0  0  0  0  0  0  0  0  0  0  0
  147.1630  160.3100  133.1900 C   0  0  0  0  0  0  0  0  0  0  0  0
  145.8510  160.1560  133.4620 C   0  0  0  0  0  0  0  0  0  0  0  0
  144.8970  161.1170  133.7870 C   0  0  0  0  0  0  0  0  0  0  0  0
  143.5940  160.7420  134.0340 C   0  0  0  0  0  0  0  0  0  0  0  0
  143.2860  159.4030  133.9440 C   0  0  0  0  0  0  0  0  0  0  0  0
  141.9420  159.0080  134.1950 N   0  0  0  0  0  0  0  0  0  0  0  0
  141.3730  159.2970  135.4950 C   0  0  0  0  0  0  0  0  0  0  0  0
  141.1940  158.3280  133.1430 C   0  0  0  0  0  0  0  0  0  0  0  0
  144.2520  158.4540  133.6170 C   0  0  0  0  0  0  0  0  0  0  0  0
  145.5680  158.8200  133.3680 C   0  0  0  0  0  0  0  0  0  0  0  0
  145.8631  153.9133  134.2509 H   0  0  0  0  0  0  0  0  0  0  0  0
  144.9045  152.8891  133.1290 H   0  0  0  0  0  0  0  0  0  0  0  0
  146.6978  152.7857  133.1290 H   0  0  0  0  0  0  0  0  0  0  0  0
  146.8870  154.5380  131.8890 H   0  0  0  0  0  0  0  0  0  0  0  0
  144.7948  156.2541  132.3612 H   0  0  0  0  0  0  0  0  0  0  0  0
  145.3537  155.4676  133.9411 H   0  0  0  0  0  0  0  0  0  0  0  0
  149.9740  157.0970  133.0000 H   0  0  0  0  0  0  0  0  0  0  0  0
  149.5290  157.1470  131.2180 H   0  0  0  0  0  0  0  0  0  0  0  0
  147.7254  161.2553  133.1802 H   0  0  0  0  0  0  0  0  0  0  0  0
  145.1839  162.1772  133.8467 H   0  0  0  0  0  0  0  0  0  0  0  0
  142.8269  161.4864  134.2939 H   0  0  0  0  0  0  0  0  0  0  0  0
  142.0590  158.9486  136.2812 H   0  0  0  0  0  0  0  0  0  0  0  0
  141.2206  160.3817  135.5956 H   0  0  0  0  0  0  0  0  0  0  0  0
  140.4072  158.7802  135.5956 H   0  0  0  0  0  0  0  0  0  0  0  0
  140.4527  157.6541  133.5972 H   0  0  0  0  0  0  0  0  0  0  0  0
  140.6785  159.0732  132.5193 H   0  0  0  0  0  0  0  0  0  0  0  0
  141.8868  157.7440  132.5193 H   0  0  0  0  0  0  0  0  0  0  0  0
  143.9665  157.3935  133.5548 H   0  0  0  0  0  0  0  0  0  0  0  0
  1  2  1  0
  2  3  1  0
  3  4  1  0
  4  5  2  0
  4  6  1  0
  6  7  1  0
  7  8  1  0
  8  9  1  0
  8 10  2  0
  7 11  2  0
 11 12  1  0
 12 13  2  0
 13 14  1  0
 14 15  2  0
 15 16  1  0
 16 17  1  0
 16 18  1  0
 15 19  1  0
 19 20  2  0
 20  6  1  0
 20 12  1  0
  1 21  1  0
  1 22  1  0
  1 23  1  0
  2 24  1  0
  3 25  1  0
  3 26  1  0
  9 27  1  0
  9 28  1  0
 11 29  1  0
 13 30  1  0
 14 31  1  0
 17 32  1  0
 17 33  1  0
 17 34  1  0
 18 35  1  0
 18 36  1  0
 18 37  1  0
 19 38  1  0
M  END
>  <smiles>  (45) 
CNCC(=O)n1c(C(N)=O)cc2ccc(N(C)C)cc21

>  <score_type>  (45) 
oracle

>  <origin>  (45) 
adg

>  <m_score__min__energy>  (45) 
-6.8300000000000001

>  <m_primary>  (45) 
energy

$$$$
48:0
     RDKit          3D

 46 47  0  0  0  0  0  0  0  0999 V2000
  141.2150  155.1610  133.4090 C   0  0  0  0  0  0  0  0  0  0  0  0
  141.3970  156.3790  134.1810 N   0  0  0  0  0  0  0  0  0  0  0  0
  142.7790  156.7380  134.6070 C   0  0  0  0  0  0  0  0  0  0  0  0
  143.2980  157.5890  133.5030 C   0  0  0  0  0  0  0  0  0  0  0  0
  142.4630  157.7120  132.5400 O   0  0  0  0  0  0  0  0  0  0  0  0
  144.5640  158.2150  133.4690 N   0  0  0  0  0  0  0  0  0  0  0  0
  144.7760  159.5400  133.5100 C   0  0  0  0  0  0  0  0  0  0  0  0
  143.8760  160.6700  133.5970 C   0  0  0  0  0  0  0  0  0  0  0  0
  142.4560  160.4850  133.3440 N   0  0  0  0  0  0  0  0  0  0  0  0
  144.1780  161.8480  133.8780 O   0  0  0  0  0  0  0  0  0  0  0  0
  146.1680  159.7340  133.4520 C   0  0  0  0  0  0  0  0  0  0  0  0
  146.7870  158.5230  133.3770 C   0  0  0  0  0  0  0  0  0  0  0  0
  148.1220  158.1950  133.3000 C   0  0  0  0  0  0  0  0  0  0  0  0
  148.4830  156.8720  133.2330 C   0  0  0  0  0  0  0  0  0  0  0  0
  147.5170  155.8970  133.2410 C   0  0  0  0  0  0  0  0  0  0  0  0
  147.8880  154.4460  133.1670 C   0  0  0  0  0  0  0  0  0  0  0  0
  148.0540  153.9410  134.4400 F   0  0  0  0  0  0  0  0  0  0  0  0
  149.0110  154.2780  132.4100 F   0  0  0  0  0  0  0  0  0  0  0  0
  146.7850  153.7840  132.6200 F   0  0  0  0  0  0  0  0  0  0  0  0
  146.1760  156.2670  133.3190 C   0  0  0  0  0  0  0  0  0  0  0  0
  145.7700  157.5810  133.3880 C   0  0  0  0  0  0  0  0  0  0  0  0
  140.3200  157.2270  134.5390 C   0  0  0  0  0  0  0  0  0  0  0  0
  139.7850  157.1180  135.6790 O   0  0  0  0  0  0  0  0  0  0  0  0
  139.8300  158.2220  133.5960 C   0  0  0  0  0  0  0  0  0  0  0  0
  140.2820  159.3920  133.5130 O   0  0  0  0  0  0  0  0  0  0  0  0
  138.7710  157.8890  132.6940 N   0  0  0  0  0  0  0  0  0  0  0  0
  138.3500  158.9550  131.7900 C   0  0  0  0  0  0  0  0  0  0  0  0
  139.3990  158.9890  130.6730 C   0  0  0  0  0  0  0  0  0  0  0  0
  140.5580  159.6070  131.0690 O   0  0  0  0  0  0  0  0  0  0  0  0
  141.0877  154.3090  134.0930 H   0  0  0  0  0  0  0  0  0  0  0  0
  140.3215  155.2589  132.7749 H   0  0  0  0  0  0  0  0  0  0  0  0
  142.0981  154.9934  132.7749 H   0  0  0  0  0  0  0  0  0  0  0  0
  142.7613  157.2973  135.5540 H   0  0  0  0  0  0  0  0  0  0  0  0
  143.4065  155.8519  134.7834 H   0  0  0  0  0  0  0  0  0  0  0  0
  142.1940  159.8590  132.5290 H   0  0  0  0  0  0  0  0  0  0  0  0
  141.7410  160.9490  133.9380 H   0  0  0  0  0  0  0  0  0  0  0  0
  146.6763  160.7094  133.4651 H   0  0  0  0  0  0  0  0  0  0  0  0
  148.8896  158.9829  133.2923 H   0  0  0  0  0  0  0  0  0  0  0  0
  149.5455  156.5937  133.1730 H   0  0  0  0  0  0  0  0  0  0  0  0
  145.4104  155.4772  133.3257 H   0  0  0  0  0  0  0  0  0  0  0  0
  138.3570  156.9480  132.7110 H   0  0  0  0  0  0  0  0  0  0  0  0
  137.3550  158.7358  131.3753 H   0  0  0  0  0  0  0  0  0  0  0  0
  138.2772  159.9224  132.3086 H   0  0  0  0  0  0  0  0  0  0  0  0
  139.6323  157.9563  130.3747 H   0  0  0  0  0  0  0  0  0  0  0  0
  138.9799  159.5633  129.8336 H   0  0  0  0  0  0  0  0  0  0  0  0
  141.1790  159.0080  131.5450 H   0  0  0  0  0  0  0  0  0  0  0  0
  1  2  1  0
  2  3  1  0
  3  4  1  0
  4  5  2  0
  4  6  1  0
  6  7  1  0
  7  8  1  0
  8  9  1  0
  8 10  2  0
  7 11  2  0
 11 12  1  0
 12 13  2  0
 13 14  1  0
 14 15  2  0
 15 16  1  0
 16 17  1  0
 16 18  1  0
 16 19  1  0
 15 20  1  0
 20 21  2  0
  2 22  1  0
 22 23  2  0
 22 24  1  0
 24 25  2  0
 24 26  1  0
 26 27  1  0
 27 28  1  0
 28 29  1  0
 21  6  1  0
 21 12  1  0
  1 30  1  0
  1 31  1  0
  1 32  1  0
  3 33  1  0
  3 34  1  0
  9 35  1  0
  9 36  1  0
 11 37  1  0
 13 38  1  0
 14 39  1  0
 20 40  1  0
 26 41  1  0
 27 42  1  0
 27 43  1  0
 28 44  1  0
 28 45  1  0
 29 46  1  0
M  END
>  <smiles>  (46) 
CN(CC(=O)n1c(C(N)=O)cc2ccc(C(F)(F)F)cc21)C(=O)C(=O)NCCO

>  <score_type>  (46) 
oracle

>  <origin>  (46) 
adg

>  <m_score__min__energy>  (46) 
-6.9199999999999999

>  <m_primary>  (46) 
energy

$$$$
49:0
     RDKit          3D

 46 47  0  0  0  0  0  0  0  0999 V2000
  138.1900  157.4980  133.7330 C   0  0  0  0  0  0  0  0  0  0  0  0
  139.4660  158.0710  133.3680 N   0  0  0  0  0  0  0  0  0  0  0  0
  139.6320  158.5480  132.0110 C   0  0  0  0  0  0  0  0  0  0  0  0
  139.6620  160.0730  132.0140 C   0  0  0  0  0  0  0  0  0  0  0  0
  140.8440  160.5030  132.6500 O   0  0  0  0  0  0  0  0  0  0  0  0
  140.4790  158.1320  134.3580 C   0  0  0  0  0  0  0  0  0  0  0  0
  140.7820  159.2720  134.7930 O   0  0  0  0  0  0  0  0  0  0  0  0
  141.1810  156.9290  134.8880 C   0  0  0  0  0  0  0  0  0  0  0  0
  142.4550  157.2930  135.5840 C   0  0  0  0  0  0  0  0  0  0  0  0
  143.5780  157.1720  134.7490 O   0  0  0  0  0  0  0  0  0  0  0  0
  143.8940  158.0280  133.7200 C   0  0  0  0  0  0  0  0  0  0  0  0
  142.9700  158.2050  132.8550 O   0  0  0  0  0  0  0  0  0  0  0  0
  145.1290  158.7020  133.5600 N   0  0  0  0  0  0  0  0  0  0  0  0
  145.3610  160.0230  133.6510 C   0  0  0  0  0  0  0  0  0  0  0  0
  144.4740  161.1160  133.9260 C   0  0  0  0  0  0  0  0  0  0  0  0
  143.0530  160.9420  133.7070 N   0  0  0  0  0  0  0  0  0  0  0  0
  144.7900  162.2520  134.3500 O   0  0  0  0  0  0  0  0  0  0  0  0
  146.7320  160.2040  133.4170 C   0  0  0  0  0  0  0  0  0  0  0  0
  147.3150  158.9870  133.1860 C   0  0  0  0  0  0  0  0  0  0  0  0
  148.6290  158.6380  132.9080 C   0  0  0  0  0  0  0  0  0  0  0  0
  148.9490  157.3110  132.7150 C   0  0  0  0  0  0  0  0  0  0  0  0
  147.9640  156.3570  132.8000 C   0  0  0  0  0  0  0  0  0  0  0  0
  148.3140  154.9240  132.5900 C   0  0  0  0  0  0  0  0  0  0  0  0
  149.6820  154.7810  132.5300 F   0  0  0  0  0  0  0  0  0  0  0  0
  146.6530  156.7400  133.0800 C   0  0  0  0  0  0  0  0  0  0  0  0
  146.3030  158.0620  133.2790 C   0  0  0  0  0  0  0  0  0  0  0  0
  138.1052  157.4599  134.8291 H   0  0  0  0  0  0  0  0  0  0  0  0
  137.3790  158.1184  133.3238 H   0  0  0  0  0  0  0  0  0  0  0  0
  138.1148  156.4797  133.3238 H   0  0  0  0  0  0  0  0  0  0  0  0
  140.5762  158.1625  131.5987 H   0  0  0  0  0  0  0  0  0  0  0  0
  138.7938  158.1967  131.3913 H   0  0  0  0  0  0  0  0  0  0  0  0
  139.6427  160.4451  130.9791 H   0  0  0  0  0  0  0  0  0  0  0  0
  138.7852  160.4629  132.5518 H   0  0  0  0  0  0  0  0  0  0  0  0
  141.4490  159.7060  132.7680 H   0  0  0  0  0  0  0  0  0  0  0  0
  140.5194  156.4156  135.6012 H   0  0  0  0  0  0  0  0  0  0  0  0
  141.4290  156.2750  134.0390 H   0  0  0  0  0  0  0  0  0  0  0  0
  142.3830  158.3349  135.9294 H   0  0  0  0  0  0  0  0  0  0  0  0
  142.5872  156.5962  136.4248 H   0  0  0  0  0  0  0  0  0  0  0  0
  142.4580  161.7270  133.3570 H   0  0  0  0  0  0  0  0  0  0  0  0
  142.6140  160.0080  133.9040 H   0  0  0  0  0  0  0  0  0  0  0  0
  147.2561  161.1711  133.4188 H   0  0  0  0  0  0  0  0  0  0  0  0
  149.4074  159.4124  132.8423 H   0  0  0  0  0  0  0  0  0  0  0  0
  149.9861  157.0180  132.4944 H   0  0  0  0  0  0  0  0  0  0  0  0
  147.9208  154.3260  133.4254 H   0  0  0  0  0  0  0  0  0  0  0  0
  147.8712  154.5772  131.6446 H   0  0  0  0  0  0  0  0  0  0  0  0
  145.8736  155.9664  133.1445 H   0  0  0  0  0  0  0  0  0  0  0  0
  1  2  1  0
  2  3  1  0
  3  4  1  0
  4  5  1  0
  2  6  1  0
  6  7  2  0
  6  8  1  0
  8  9  1  0
  9 10  1  0
 10 11  1  0
 11 12  2  0
 11 13  1  0
 13 14  1  0
 14 15  1  0
 15 16  1  0
 15 17  2  0
 14 18  2  0
 18 19  1  0
 19 20  2  0
 20 21  1  0
 21 22  2  0
 22 23  1  0
 23 24  1  0
 22 25  1  0
 25 26  2  0
 26 13  1  0
 26 19  1  0
  1 27  1  0
  1 28  1  0
  1 29  1  0
  3 30  1  0
  3 31  1  0
  4 32  1  0
  4 33  1  0
  5 34  1  0
  8 35  1  0
  8 36  1  0
  9 37  1  0
  9 38  1  0
 16 39  1  0
 16 40  1  0
 18 41  1  0
 20 42  1  0
 21 43  1  0
 23 44  1  0
 23 45  1  0
 25 46  1  0
M  END
>  <smiles>  (47) 
CN(CCO)C(=O)CCOC(=O)n1c(C(N)=O)cc2ccc(CF)cc21

>  <score_type>  (47) 
oracle

>  <origin>  (47) 
adg

>  <m_score__min__energy>  (47) 
-6.8799999999999999

>  <m_primary>  (47) 
energy

$$$$
50:0
     RDKit          3D

 44 45  0  0  0  0  0  0  0  0999 V2000
  150.0370  160.0920  129.2580 C   0  0  0  0  0  0  0  0  0  0  0  0
  149.4550  160.3780  130.5760 N   0  0  0  0  0  0  0  0  0  0  0  0
  148.8840  161.7020  130.7380 C   0  0  0  0  0  0  0  0  0  0  0  0
  149.4520  159.4130  131.6210 C   0  0  0  0  0  0  0  0  0  0  0  0
  149.9720  158.2940  131.3780 O   0  0  0  0  0  0  0  0  0  0  0  0
  148.8450  159.7920  132.9060 C   0  0  0  0  0  0  0  0  0  0  0  0
  148.8310  158.7280  133.8700 N   0  0  0  0  0  0  0  0  0  0  0  0
  147.8520  157.6880  133.6670 C   0  0  0  0  0  0  0  0  0  0  0  0
  146.5170  157.9940  133.7550 C   0  0  0  0  0  0  0  0  0  0  0  0
  145.5880  156.9940  133.5590 C   0  0  0  0  0  0  0  0  0  0  0  0
  146.0190  155.7060  133.2800 C   0  0  0  0  0  0  0  0  0  0  0  0
  145.3220  154.5610  133.0500 C   0  0  0  0  0  0  0  0  0  0  0  0
  146.2100  153.5220  132.8160 C   0  0  0  0  0  0  0  0  0  0  0  0
  145.7850  152.1660  132.5370 C   0  0  0  0  0  0  0  0  0  0  0  0
  146.7930  151.1630  132.2720 N   0  0  0  0  0  0  0  0  0  0  0  0
  144.6120  151.7490  132.4970 O   0  0  0  0  0  0  0  0  0  0  0  0
  147.4490  154.0340  132.9030 N   0  0  0  0  0  0  0  0  0  0  0  0
  148.6890  153.3790  132.7450 C   0  0  0  0  0  0  0  0  0  0  0  0
  149.2560  153.3540  131.5960 O   0  0  0  0  0  0  0  0  0  0  0  0
  149.3960  152.7290  133.7380 O   0  0  0  0  0  0  0  0  0  0  0  0
  149.3520  151.3260  133.9120 C   0  0  0  0  0  0  0  0  0  0  0  0
  149.5120  150.6180  132.6210 C   0  0  0  0  0  0  0  0  0  0  0  0
  148.7980  149.6730  132.2310 O   0  0  0  0  0  0  0  0  0  0  0  0
  150.5310  151.0410  131.7850 O   0  0  0  0  0  0  0  0  0  0  0  0
  147.3530  155.3670  133.1860 C   0  0  0  0  0  0  0  0  0  0  0  0
  148.2630  156.3820  133.3850 C   0  0  0  0  0  0  0  0  0  0  0  0
  151.0174  159.6102  129.3868 H   0  0  0  0  0  0  0  0  0  0  0  0
  149.3686  159.4197  128.7001 H   0  0  0  0  0  0  0  0  0  0  0  0
  150.1608  161.0319  128.7001 H   0  0  0  0  0  0  0  0  0  0  0  0
  148.7856  161.9302  131.8096 H   0  0  0  0  0  0  0  0  0  0  0  0
  149.5415  162.4454  130.2636 H   0  0  0  0  0  0  0  0  0  0  0  0
  147.8921  161.7341  130.2636 H   0  0  0  0  0  0  0  0  0  0  0  0
  149.4153  160.6340  133.3253 H   0  0  0  0  0  0  0  0  0  0  0  0
  147.7971  160.0574  132.7025 H   0  0  0  0  0  0  0  0  0  0  0  0
  149.4740  158.6710  134.6840 H   0  0  0  0  0  0  0  0  0  0  0  0
  146.1931  159.0212  133.9785 H   0  0  0  0  0  0  0  0  0  0  0  0
  144.5127  157.2165  133.6235 H   0  0  0  0  0  0  0  0  0  0  0  0
  144.2255  154.4729  133.0497 H   0  0  0  0  0  0  0  0  0  0  0  0
  146.8230  150.3500  132.9490 H   0  0  0  0  0  0  0  0  0  0  0  0
  147.4450  151.2490  131.4610 H   0  0  0  0  0  0  0  0  0  0  0  0
  150.1640  151.0234  134.5896 H   0  0  0  0  0  0  0  0  0  0  0  0
  148.3722  151.0593  134.3350 H   0  0  0  0  0  0  0  0  0  0  0  0
  150.8550  152.0030  131.8680 H   0  0  0  0  0  0  0  0  0  0  0  0
  149.3383  156.1595  133.3204 H   0  0  0  0  0  0  0  0  0  0  0  0
  1  2  1  0
  2  3  1  0
  2  4  1  0
  4  5  2  0
  4  6  1  0
  6  7  1  0
  7  8  1  0
  8  9  2  0
  9 10  1  0
 10 11  2  0
 11 12  1  0
 12 13  2  0
 13 14  1  0
 14 15  1  0
 14 16  2  0
 13 17  1  0
 17 18  1  0
 18 19  2  0
 18 20  1  0
 20 21  1  0
 21 22  1  0
 22 23  2  0
 22 24  1  0
 17 25  1  0
 25 26  2  0
 26  8  1  0
 25 11  1  0
  1 27  1  0
  1 28  1  0
  1 29  1  0
  3 30  1  0
  3 31  1  0
  3 32  1  0
  6 33  1  0
  6 34  1  0
  7 35  1  0
  9 36  1  0
 10 37  1  0
 12 38  1  0
 15 39  1  0
 15 40  1  0
 21 41  1  0
 21 42  1  0
 24 43  1  0
 26 44  1  0
M  END
>  <smiles>  (48) 
CN(C)C(=O)CNc1ccc2cc(C(N)=O)n(C(=O)OCC(=O)O)c2c1

>  <score_type>  (48) 
oracle

>  <origin>  (48) 
adg

>  <m_score__min__energy>  (48) 
-7.2400000000000002

>  <m_primary>  (48) 
energy

$$$$
51:0
     RDKit          3D

 47 48  0  0  0  0  0  0  0  0999 V2000
  145.3750  152.9070  132.6050 C   0  0  0  0  0  0  0  0  0  0  0  0
  146.7030  153.1780  133.1410 N   0  0  0  0  0  0  0  0  0  0  0  0
  147.7910  152.3470  132.7440 C   0  0  0  0  0  0  0  0  0  0  0  0
  149.0450  153.0780  132.4260 C   0  0  0  0  0  0  0  0  0  0  0  0
  150.1940  152.5960  132.6010 O   0  0  0  0  0  0  0  0  0  0  0  0
  148.9000  154.3640  131.9100 O   0  0  0  0  0  0  0  0  0  0  0  0
  146.8090  154.2800  134.0360 C   0  0  0  0  0  0  0  0  0  0  0  0
  147.7230  154.2800  134.8990 O   0  0  0  0  0  0  0  0  0  0  0  0
  145.8510  155.4450  133.9690 C   0  0  0  0  0  0  0  0  0  0  0  0
  146.3310  156.4200  132.9600 C   0  0  0  0  0  0  0  0  0  0  0  0
  146.7720  155.8510  131.8980 O   0  0  0  0  0  0  0  0  0  0  0  0
  146.3380  157.8220  133.0780 N   0  0  0  0  0  0  0  0  0  0  0  0
  147.4140  158.6050  132.8900 C   0  0  0  0  0  0  0  0  0  0  0  0
  148.7850  158.3220  132.5250 C   0  0  0  0  0  0  0  0  0  0  0  0
  149.1920  156.9530  132.2440 N   0  0  0  0  0  0  0  0  0  0  0  0
  149.7180  159.1450  132.4140 O   0  0  0  0  0  0  0  0  0  0  0  0
  146.9950  159.9310  133.1130 C   0  0  0  0  0  0  0  0  0  0  0  0
  145.6680  159.9400  133.4350 C   0  0  0  0  0  0  0  0  0  0  0  0
  144.8220  160.9760  133.7340 C   0  0  0  0  0  0  0  0  0  0  0  0
  143.5080  160.6980  134.0260 C   0  0  0  0  0  0  0  0  0  0  0  0
  143.0540  159.3990  134.0160 C   0  0  0  0  0  0  0  0  0  0  0  0
  141.6980  159.0920  134.3170 N   0  0  0  0  0  0  0  0  0  0  0  0
  141.2010  159.3640  135.6760 C   0  0  0  0  0  0  0  0  0  0  0  0
  140.7630  158.5300  133.3940 C   0  0  0  0  0  0  0  0  0  0  0  0
  140.0690  159.6200  132.6620 C   0  0  0  0  0  0  0  0  0  0  0  0
  139.5080  160.4810  132.0980 N   0  0  0  0  0  0  0  0  0  0  0  0
  143.9460  158.3850  133.7080 C   0  0  0  0  0  0  0  0  0  0  0  0
  145.2720  158.6090  133.4070 C   0  0  0  0  0  0  0  0  0  0  0  0
  144.6672  152.7626  133.4346 H   0  0  0  0  0  0  0  0  0  0  0  0
  145.0482  153.7570  131.9879 H   0  0  0  0  0  0  0  0  0  0  0  0
  145.4073  151.9969  131.9879 H   0  0  0  0  0  0  0  0  0  0  0  0
  148.0022  151.6440  133.5632 H   0  0  0  0  0  0  0  0  0  0  0  0
  147.4781  151.8470  131.8155 H   0  0  0  0  0  0  0  0  0  0  0  0
  148.0940  154.6520  131.3540 H   0  0  0  0  0  0  0  0  0  0  0  0
  144.8523  155.0830  133.6834 H   0  0  0  0  0  0  0  0  0  0  0  0
  145.7957  155.9323  134.9536 H   0  0  0  0  0  0  0  0  0  0  0  0
  148.7420  156.1550  132.7730 H   0  0  0  0  0  0  0  0  0  0  0  0
  149.9130  156.7340  131.5390 H   0  0  0  0  0  0  0  0  0  0  0  0
  147.6370  160.8212  133.0393 H   0  0  0  0  0  0  0  0  0  0  0  0
  145.1886  162.0131  133.7402 H   0  0  0  0  0  0  0  0  0  0  0  0
  142.8160  161.5178  134.2689 H   0  0  0  0  0  0  0  0  0  0  0  0
  141.9169  158.9722  136.4135 H   0  0  0  0  0  0  0  0  0  0  0  0
  141.0886  160.4494  135.8149 H   0  0  0  0  0  0  0  0  0  0  0  0
  140.2262  158.8737  135.8149 H   0  0  0  0  0  0  0  0  0  0  0  0
  141.2968  157.8893  132.6766 H   0  0  0  0  0  0  0  0  0  0  0  0
  140.0227  157.9301  133.9436 H   0  0  0  0  0  0  0  0  0  0  0  0
  143.5773  157.3486  133.7034 H   0  0  0  0  0  0  0  0  0  0  0  0
  1  2  1  0
  2  3  1  0
  3  4  1  0
  4  5  2  0
  4  6  1  0
  2  7  1  0
  7  8  2  0
  7  9  1  0
  9 10  1  0
 10 11  2  0
 10 12  1  0
 12 13  1  0
 13 14  1  0
 14 15  1  0
 14 16  2  0
 13 17  2  0
 17 18  1  0
 18 19  2  0
 19 20  1  0
 20 21  2  0
 21 22  1  0
 22 23  1  0
 22 24  1  0
 24 25  1  0
 25 26  3  0
 21 27  1  0
 27 28  2  0
 28 12  1  0
 28 18  1  0
  1 29  1  0
  1 30  1  0
  1 31  1  0
  3 32  1  0
  3 33  1  0
  6 34  1  0
  9 35  1  0
  9 36  1  0
 15 37  1  0
 15 38  1  0
 17 39  1  0
 19 40  1  0
 20 41  1  0
 23 42  1  0
 23 43  1  0
 23 44  1  0
 24 45  1  0
 24 46  1  0
 27 47  1  0
M  END
>  <smiles>  (49) 
CN(CC(=O)O)C(=O)CC(=O)n1c(C(N)=O)cc2ccc(N(C)CC#N)cc21

>  <score_type>  (49) 
oracle

>  <origin>  (49) 
adg

>  <m_score__min__energy>  (49) 
-6.9900000000000002

>  <m_primary>  (49) 
energy

$$$$
52:0
     RDKit          3D

 42 43  0  0  0  0  0  0  0  0999 V2000
  149.2350  157.5530  132.4530 N   0  0  0  0  0  0  0  0  0  0  0  0
  148.4960  158.7260  132.6910 C   0  0  0  0  0  0  0  0  0  0  0  0
  149.1560  159.8170  132.5470 O   0  0  0  0  0  0  0  0  0  0  0  0
  147.1180  158.8490  133.0690 C   0  0  0  0  0  0  0  0  0  0  0  0
  146.4730  160.0920  133.1310 C   0  0  0  0  0  0  0  0  0  0  0  0
  145.1660  159.9150  133.5170 C   0  0  0  0  0  0  0  0  0  0  0  0
  144.1420  160.8160  133.7190 C   0  0  0  0  0  0  0  0  0  0  0  0
  142.8950  160.3820  134.1150 C   0  0  0  0  0  0  0  0  0  0  0  0
  142.7080  159.0300  134.3000 C   0  0  0  0  0  0  0  0  0  0  0  0
  141.3740  158.5490  134.7250 C   0  0  0  0  0  0  0  0  0  0  0  0
  140.7790  157.5980  133.6930 C   0  0  0  0  0  0  0  0  0  0  0  0
  141.4780  157.6640  132.4910 O   0  0  0  0  0  0  0  0  0  0  0  0
  143.7560  158.1380  134.0900 C   0  0  0  0  0  0  0  0  0  0  0  0
  145.0120  158.5560  133.6940 C   0  0  0  0  0  0  0  0  0  0  0  0
  146.1920  157.9400  133.4200 N   0  0  0  0  0  0  0  0  0  0  0  0
  146.3510  156.5440  133.5120 C   0  0  0  0  0  0  0  0  0  0  0  0
  146.9330  156.0700  134.5450 O   0  0  0  0  0  0  0  0  0  0  0  0
  145.9420  155.6050  132.5950 O   0  0  0  0  0  0  0  0  0  0  0  0
  144.6430  155.1570  132.4630 C   0  0  0  0  0  0  0  0  0  0  0  0
  143.7110  155.9630  132.2140 O   0  0  0  0  0  0  0  0  0  0  0  0
  144.3830  153.7150  132.6230 C   0  0  0  0  0  0  0  0  0  0  0  0
  143.3470  153.4220  133.6700 C   0  0  0  0  0  0  0  0  0  0  0  0
  141.9790  153.5530  132.9950 C   0  0  0  0  0  0  0  0  0  0  0  0
  141.4530  154.8250  133.1730 O   0  0  0  0  0  0  0  0  0  0  0  0
  149.7380  157.1170  133.2830 H   0  0  0  0  0  0  0  0  0  0  0  0
  149.3050  157.1140  131.4860 H   0  0  0  0  0  0  0  0  0  0  0  0
  146.9416  161.0612  132.9051 H   0  0  0  0  0  0  0  0  0  0  0  0
  144.3216  161.8899  133.5628 H   0  0  0  0  0  0  0  0  0  0  0  0
  142.0732  161.0947  134.2785 H   0  0  0  0  0  0  0  0  0  0  0  0
  141.4715  158.0216  135.6854 H   0  0  0  0  0  0  0  0  0  0  0  0
  140.7058  159.4168  134.8265 H   0  0  0  0  0  0  0  0  0  0  0  0
  140.8277  156.5700  134.0812 H   0  0  0  0  0  0  0  0  0  0  0  0
  139.7352  157.8914  133.5075 H   0  0  0  0  0  0  0  0  0  0  0  0
  141.7190  156.7440  132.2300 H   0  0  0  0  0  0  0  0  0  0  0  0
  143.5780  157.0636  134.2446 H   0  0  0  0  0  0  0  0  0  0  0  0
  144.0337  153.3122  131.6608 H   0  0  0  0  0  0  0  0  0  0  0  0
  145.3227  153.2434  132.9465 H   0  0  0  0  0  0  0  0  0  0  0  0
  143.4805  152.4015  134.0584 H   0  0  0  0  0  0  0  0  0  0  0  0
  143.4357  154.1194  134.5160 H   0  0  0  0  0  0  0  0  0  0  0  0
  142.0897  153.3576  131.9182 H   0  0  0  0  0  0  0  0  0  0  0  0
  141.2931  152.8245  133.4520 H   0  0  0  0  0  0  0  0  0  0  0  0
  141.8410  155.5160  132.5980 H   0  0  0  0  0  0  0  0  0  0  0  0
  1  2  1  0
  2  3  2  0
  2  4  1  0
  4  5  2  0
  5  6  1  0
  6  7  2  0
  7  8  1  0
  8  9  2  0
  9 10  1  0
 10 11  1  0
 11 12  1  0
  9 13  1  0
 13 14  2  0
 14 15  1  0
 15 16  1  0
 16 17  2  0
 16 18  1  0
 18 19  1  0
 19 20  2  0
 19 21  1  0
 21 22  1  0
 22 23  1  0
 23 24  1  0
 15  4  1  0
 14  6  1  0
  1 25  1  0
  1 26  1  0
  5 27  1  0
  7 28  1  0
  8 29  1  0
 10 30  1  0
 10 31  1  0
 11 32  1  0
 11 33  1  0
 12 34  1  0
 13 35  1  0
 21 36  1  0
 21 37  1  0
 22 38  1  0
 22 39  1  0
 23 40  1  0
 23 41  1  0
 24 42  1  0
M  END
>  <smiles>  (50) 
NC(=O)c1cc2ccc(CCO)cc2n1C(=O)OC(=O)CCCO

>  <score_type>  (50) 
oracle

>  <origin>  (50) 
adg

>  <m_score__min__energy>  (50) 
-6.9900000000000002

>  <m_primary>  (50) 
energy

$$$$
53:0
     RDKit          3D

 36 37  0  0  0  0  0  0  0  0999 V2000
  150.0190  150.5290  130.7560 C   0  0  0  0  0  0  0  0  0  0  0  0
  149.9460  151.0500  131.8410 C   0  0  0  0  0  0  0  0  0  0  0  0
  149.8700  151.6650  133.1660 C   0  0  0  0  0  0  0  0  0  0  0  0
  148.6830  152.4200  133.3380 O   0  0  0  0  0  0  0  0  0  0  0  0
  148.5340  153.6340  132.6320 C   0  0  0  0  0  0  0  0  0  0  0  0
  149.5060  153.9200  131.8930 O   0  0  0  0  0  0  0  0  0  0  0  0
  147.3690  154.4010  132.7960 N   0  0  0  0  0  0  0  0  0  0  0  0
  146.1150  153.9450  132.9260 C   0  0  0  0  0  0  0  0  0  0  0  0
  145.5860  152.6000  132.9390 C   0  0  0  0  0  0  0  0  0  0  0  0
  146.3920  151.5100  132.4330 N   0  0  0  0  0  0  0  0  0  0  0  0
  144.4570  152.2570  133.3570 O   0  0  0  0  0  0  0  0  0  0  0  0
  145.2860  155.0660  133.0640 C   0  0  0  0  0  0  0  0  0  0  0  0
  146.0550  156.2040  133.0160 C   0  0  0  0  0  0  0  0  0  0  0  0
  145.7140  157.5390  133.1050 C   0  0  0  0  0  0  0  0  0  0  0  0
  146.7020  158.4910  133.0250 C   0  0  0  0  0  0  0  0  0  0  0  0
  148.0130  158.1000  132.8570 C   0  0  0  0  0  0  0  0  0  0  0  0
  149.1120  159.1210  132.7660 C   0  0  0  0  0  0  0  0  0  0  0  0
  149.2850  159.7850  131.1100 P   0  0  0  0  0  0  0  0  0  0  0  0
  150.7420  160.0570  130.8560 O   0  0  0  0  0  0  0  0  0  0  0  0
  148.8150  158.6420  129.9310 O   0  0  0  0  0  0  0  0  0  0  0  0
  148.3730  161.1720  130.8530 O   0  0  0  0  0  0  0  0  0  0  0  0
  148.3230  156.7460  132.7710 C   0  0  0  0  0  0  0  0  0  0  0  0
  147.3510  155.7630  132.8480 C   0  0  0  0  0  0  0  0  0  0  0  0
  150.0856  150.0537  129.7662 H   0  0  0  0  0  0  0  0  0  0  0  0
  149.8986  150.8714  133.9272 H   0  0  0  0  0  0  0  0  0  0  0  0
  150.7243  152.3501  133.2700 H   0  0  0  0  0  0  0  0  0  0  0  0
  146.1760  151.1200  131.4890 H   0  0  0  0  0  0  0  0  0  0  0  0
  147.1830  151.1150  133.0040 H   0  0  0  0  0  0  0  0  0  0  0  0
  144.1936  155.0395  133.1906 H   0  0  0  0  0  0  0  0  0  0  0  0
  144.6636  157.8372  133.2384 H   0  0  0  0  0  0  0  0  0  0  0  0
  146.4479  159.5590  133.0946 H   0  0  0  0  0  0  0  0  0  0  0  0
  148.8863  159.9467  133.4568 H   0  0  0  0  0  0  0  0  0  0  0  0
  150.0570  158.6241  133.0307 H   0  0  0  0  0  0  0  0  0  0  0  0
  148.7700  157.7340  130.3140 H   0  0  0  0  0  0  0  0  0  0  0  0
  148.0970  161.2780  129.9240 H   0  0  0  0  0  0  0  0  0  0  0  0
  149.3733  156.4474  132.6376 H   0  0  0  0  0  0  0  0  0  0  0  0
  1  2  3  0
  2  3  1  0
  3  4  1  0
  4  5  1  0
  5  6  2  0
  5  7  1  0
  7  8  1  0
  8  9  1  0
  9 10  1  0
  9 11  2  0
  8 12  2  0
 12 13  1  0
 13 14  2  0
 14 15  1  0
 15 16  2  0
 16 17  1  0
 17 18  1  0
 18 19  2  0
 18 20  1  0
 18 21  1  0
 16 22  1  0
 22 23  2  0
 23  7  1  0
 23 13  1  0
  1 24  1  0
  3 25  1  0
  3 26  1  0
 10 27  1  0
 10 28  1  0
 12 29  1  0
 14 30  1  0
 15 31  1  0
 17 32  1  0
 17 33  1  0
 20 34  1  0
 21 35  1  0
 22 36  1  0
M  END
>  <smiles>  (51) 
C#CCOC(=O)n1c(C(N)=O)cc2ccc(CP(=O)(O)O)cc21

>  <score_type>  (51) 
oracle

>  <origin>  (51) 
adg

>  <m_score__min__energy>  (51) 
-7.6699999999999999

>  <m_primary>  (51) 
energy

$$$$
54:0
     RDKit          3D

 43 45  0  0  0  0  0  0  0  0999 V2000
  145.6420  160.3950  132.7730 N   0  0  0  0  0  0  0  0  0  0  0  0
  145.0860  159.2080  133.2390 C   0  0  0  0  0  0  0  0  0  0  0  0
  143.9250  159.3860  133.8230 O   0  0  0  0  0  0  0  0  0  0  0  0
  145.5300  157.8470  133.2010 C   0  0  0  0  0  0  0  0  0  0  0  0
  144.6170  156.7890  133.3490 C   0  0  0  0  0  0  0  0  0  0  0  0
  145.2740  155.5990  133.2860 C   0  0  0  0  0  0  0  0  0  0  0  0
  144.8000  154.3070  133.3640 C   0  0  0  0  0  0  0  0  0  0  0  0
  145.6570  153.2590  133.2540 C   0  0  0  0  0  0  0  0  0  0  0  0
  146.9920  153.5160  133.0650 C   0  0  0  0  0  0  0  0  0  0  0  0
  147.8670  152.3980  132.9530 N   0  0  0  0  0  0  0  0  0  0  0  0
  149.1980  152.3900  133.5220 C   0  0  0  0  0  0  0  0  0  0  0  0
  150.1430  151.7460  132.5460 C   0  0  0  0  0  0  0  0  0  0  0  0
  149.6340  150.7100  131.8220 O   0  0  0  0  0  0  0  0  0  0  0  0
  148.4260  150.1970  132.2110 C   0  0  0  0  0  0  0  0  0  0  0  0
  147.3210  151.2520  132.2150 C   0  0  0  0  0  0  0  0  0  0  0  0
  147.4480  154.8240  132.9870 C   0  0  0  0  0  0  0  0  0  0  0  0
  146.6060  155.9100  133.0960 C   0  0  0  0  0  0  0  0  0  0  0  0
  146.7650  157.2650  133.0470 N   0  0  0  0  0  0  0  0  0  0  0  0
  147.9660  157.9860  132.9370 C   0  0  0  0  0  0  0  0  0  0  0  0
  148.5760  158.3280  134.0160 O   0  0  0  0  0  0  0  0  0  0  0  0
  148.6870  158.4410  131.7410 C   0  0  0  0  0  0  0  0  0  0  0  0
  148.5260  160.2650  131.5590 P   0  0  0  0  0  0  0  0  0  0  0  0
  147.3600  160.4560  130.5900 O   0  0  0  0  0  0  0  0  0  0  0  0
  149.9360  160.9710  131.0310 O   0  0  0  0  0  0  0  0  0  0  0  0
  148.1240  160.8710  133.0790 O   0  0  0  0  0  0  0  0  0  0  0  0
  146.1850  161.0950  133.3330 H   0  0  0  0  0  0  0  0  0  0  0  0
  145.5230  160.6760  131.7550 H   0  0  0  0  0  0  0  0  0  0  0  0
  143.5329  156.9054  133.4941 H   0  0  0  0  0  0  0  0  0  0  0  0
  143.7259  154.1244  133.5156 H   0  0  0  0  0  0  0  0  0  0  0  0
  145.2883  152.2244  133.3152 H   0  0  0  0  0  0  0  0  0  0  0  0
  149.5204  153.4227  133.7210 H   0  0  0  0  0  0  0  0  0  0  0  0
  149.1957  151.8247  134.4656 H   0  0  0  0  0  0  0  0  0  0  0  0
  150.4767  152.5198  131.8390 H   0  0  0  0  0  0  0  0  0  0  0  0
  150.9524  151.3157  133.1541 H   0  0  0  0  0  0  0  0  0  0  0  0
  148.1437  149.3920  131.5166 H   0  0  0  0  0  0  0  0  0  0  0  0
  148.5358  149.8215  133.2391 H   0  0  0  0  0  0  0  0  0  0  0  0
  147.0668  151.5448  131.1856 H   0  0  0  0  0  0  0  0  0  0  0  0
  146.3993  150.8721  132.6799 H   0  0  0  0  0  0  0  0  0  0  0  0
  148.5225  155.0012  132.8323 H   0  0  0  0  0  0  0  0  0  0  0  0
  149.7508  158.1776  131.8356 H   0  0  0  0  0  0  0  0  0  0  0  0
  148.2570  157.9520  130.8544 H   0  0  0  0  0  0  0  0  0  0  0  0
  150.7490  160.5620  131.3900 H   0  0  0  0  0  0  0  0  0  0  0  0
  148.6970  160.4830  133.8040 H   0  0  0  0  0  0  0  0  0  0  0  0
  1  2  1  0
  2  3  2  0
  2  4  1  0
  4  5  2  0
  5  6  1  0
  6  7  2  0
  7  8  1  0
  8  9  2  0
  9 10  1  0
 10 11  1  0
 11 12  1  0
 12 13  1  0
 13 14  1  0
 14 15  1  0
  9 16  1  0
 16 17  2  0
 17 18  1  0
 18 19  1  0
 19 20  2  0
 19 21  1  0
 21 22  1  0
 22 23  2  0
 22 24  1  0
 22 25  1  0
 18  4  1  0
 17  6  1  0
 15 10  1  0
  1 26  1  0
  1 27  1  0
  5 28  1  0
  7 29  1  0
  8 30  1  0
 11 31  1  0
 11 32  1  0
 12 33  1  0
 12 34  1  0
 14 35  1  0
 14 36  1  0
 15 37  1  0
 15 38  1  0
 16 39  1  0
 21 40  1  0
 21 41  1  0
 24 42  1  0
 25 43  1  0
M  END
>  <smiles>  (52) 
NC(=O)c1cc2ccc(N3CCOCC3)cc2n1C(=O)CP(=O)(O)O

>  <score_type>  (52) 
oracle

>  <origin>  (52) 
adg

>  <m_score__min__energy>  (52) 
-7.8899999999999997

>  <m_primary>  (52) 
energy

$$$$
56:0
     RDKit          3D

 40 42  0  0  0  0  0  0  0  0999 V2000
  147.6060  153.0490  132.7850 N   0  0  0  0  0  0  0  0  0  0  0  0
  148.3150  154.3240  132.8230 C   0  0  0  0  0  0  0  0  0  0  0  0
  149.5440  154.2010  132.6800 O   0  0  0  0  0  0  0  0  0  0  0  0
  147.5630  155.5420  133.0110 C   0  0  0  0  0  0  0  0  0  0  0  0
  148.0790  156.7820  132.5980 C   0  0  0  0  0  0  0  0  0  0  0  0
  147.1840  157.7640  132.8880 C   0  0  0  0  0  0  0  0  0  0  0  0
  147.2440  159.1220  132.6730 C   0  0  0  0  0  0  0  0  0  0  0  0
  146.2020  159.9330  133.0550 C   0  0  0  0  0  0  0  0  0  0  0  0
  145.1140  159.3380  133.6510 C   0  0  0  0  0  0  0  0  0  0  0  0
  143.9680  160.1930  134.0760 C   0  0  0  0  0  0  0  0  0  0  0  0
  143.3350  159.6030  135.1750 F   0  0  0  0  0  0  0  0  0  0  0  0
  144.3490  161.4560  134.4370 F   0  0  0  0  0  0  0  0  0  0  0  0
  143.0380  160.1720  133.0550 F   0  0  0  0  0  0  0  0  0  0  0  0
  145.0710  157.9550  133.8600 C   0  0  0  0  0  0  0  0  0  0  0  0
  146.1080  157.1300  133.4830 C   0  0  0  0  0  0  0  0  0  0  0  0
  146.3460  155.7840  133.5540 N   0  0  0  0  0  0  0  0  0  0  0  0
  145.4860  154.8020  134.0950 C   0  0  0  0  0  0  0  0  0  0  0  0
  145.9780  153.9190  134.8420 O   0  0  0  0  0  0  0  0  0  0  0  0
  144.0290  154.6970  133.8730 C   0  0  0  0  0  0  0  0  0  0  0  0
  143.6240  153.4150  133.1590 C   0  0  0  0  0  0  0  0  0  0  0  0
  144.7550  152.9740  132.2240 C   0  0  0  0  0  0  0  0  0  0  0  0
  145.4490  151.9370  132.8090 O   0  0  0  0  0  0  0  0  0  0  0  0
  143.1700  152.3510  134.0740 C   0  0  0  0  0  0  0  0  0  0  0  0
  141.9260  152.3230  133.4970 O   0  0  0  0  0  0  0  0  0  0  0  0
  142.2700  153.3090  132.6100 C   0  0  0  0  0  0  0  0  0  0  0  0
  147.3170  152.6500  133.7160 H   0  0  0  0  0  0  0  0  0  0  0  0
  147.4130  152.5860  131.8720 H   0  0  0  0  0  0  0  0  0  0  0  0
  149.0554  156.9347  132.1150 H   0  0  0  0  0  0  0  0  0  0  0  0
  148.1309  159.5609  132.1927 H   0  0  0  0  0  0  0  0  0  0  0  0
  146.2368  161.0200  132.8899 H   0  0  0  0  0  0  0  0  0  0  0  0
  144.1842  157.5141  134.3388 H   0  0  0  0  0  0  0  0  0  0  0  0
  143.5231  154.7287  134.8492 H   0  0  0  0  0  0  0  0  0  0  0  0
  143.7342  155.5383  133.2285 H   0  0  0  0  0  0  0  0  0  0  0  0
  144.3307  152.6385  131.2662 H   0  0  0  0  0  0  0  0  0  0  0  0
  145.4360  153.8189  132.0440 H   0  0  0  0  0  0  0  0  0  0  0  0
  145.8050  152.2340  133.6990 H   0  0  0  0  0  0  0  0  0  0  0  0
  143.7277  151.4089  133.9671 H   0  0  0  0  0  0  0  0  0  0  0  0
  143.2580  152.4994  135.1604 H   0  0  0  0  0  0  0  0  0  0  0  0
  142.2457  152.9835  131.5596 H   0  0  0  0  0  0  0  0  0  0  0  0
  141.6461  154.2127  132.5456 H   0  0  0  0  0  0  0  0  0  0  0  0
  1  2  1  0
  2  3  2  0
  2  4  1  0
  4  5  2  0
  5  6  1  0
  6  7  2  0
  7  8  1  0
  8  9  2  0
  9 10  1  0
 10 11  1  0
 10 12  1  0
 10 13  1  0
  9 14  1  0
 14 15  2  0
 15 16  1  0
 16 17  1  0
 17 18  2  0
 17 19  1  0
 19 20  1  0
 20 21  1  0
 21 22  1  0
 20 23  1  0
 23 24  1  0
 24 25  1  0
 16  4  1  0
 25 20  1  0
 15  6  1  0
  1 26  1  0
  1 27  1  0
  5 28  1  0
  7 29  1  0
  8 30  1  0
 14 31  1  0
 19 32  1  0
 19 33  1  0
 21 34  1  0
 21 35  1  0
 22 36  1  0
 23 37  1  0
 23 38  1  0
 25 39  1  0
 25 40  1  0
M  END
>  <smiles>  (53) 
NC(=O)c1cc2ccc(C(F)(F)F)cc2n1C(=O)CC1(CO)COC1

>  <score_type>  (53) 
oracle

>  <origin>  (53) 
adg

>  <m_score__min__energy>  (53) 
-7.0999999999999996

>  <m_primary>  (53) 
energy

$$$$
57:0
     RDKit          3D

 40 41  0  0  0  0  0  0  0  0999 V2000
  149.0260  157.2340  132.5280 N   0  0  0  0  0  0  0  0  0  0  0  0
  148.6260  158.5630  132.9390 C   0  0  0  0  0  0  0  0  0  0  0  0
  149.5810  159.3720  132.9840 O   0  0  0  0  0  0  0  0  0  0  0  0
  147.2400  158.8270  133.2410 C   0  0  0  0  0  0  0  0  0  0  0  0
  146.7440  160.1400  133.2730 C   0  0  0  0  0  0  0  0  0  0  0  0
  145.4230  160.1060  133.5780 C   0  0  0  0  0  0  0  0  0  0  0  0
  144.5160  161.1300  133.7280 C   0  0  0  0  0  0  0  0  0  0  0  0
  143.2090  160.8610  134.0510 C   0  0  0  0  0  0  0  0  0  0  0  0
  142.8490  159.5470  134.2160 C   0  0  0  0  0  0  0  0  0  0  0  0
  141.4250  159.2430  134.5690 C   0  0  0  0  0  0  0  0  0  0  0  0
  141.0690  160.0850  135.6140 F   0  0  0  0  0  0  0  0  0  0  0  0
  140.6150  159.4850  133.4650 F   0  0  0  0  0  0  0  0  0  0  0  0
  141.2800  157.9620  135.0410 F   0  0  0  0  0  0  0  0  0  0  0  0
  143.7790  158.5200  134.0600 C   0  0  0  0  0  0  0  0  0  0  0  0
  145.1010  158.7680  133.7340 C   0  0  0  0  0  0  0  0  0  0  0  0
  146.2000  157.9960  133.5300 N   0  0  0  0  0  0  0  0  0  0  0  0
  146.2510  156.5810  133.5810 C   0  0  0  0  0  0  0  0  0  0  0  0
  146.7210  155.9740  132.5500 O   0  0  0  0  0  0  0  0  0  0  0  0
  145.8310  155.7070  134.6690 C   0  0  0  0  0  0  0  0  0  0  0  0
  146.3270  154.2770  134.5720 C   0  0  0  0  0  0  0  0  0  0  0  0
  147.7000  154.2330  135.2110 C   0  0  0  0  0  0  0  0  0  0  0  0
  148.5280  153.2930  134.6590 O   0  0  0  0  0  0  0  0  0  0  0  0
  148.6460  153.2890  133.0010 P   0  0  0  0  0  0  0  0  0  0  0  0
  149.6760  152.2540  132.6090 O   0  0  0  0  0  0  0  0  0  0  0  0
  149.2430  154.7900  132.4940 O   0  0  0  0  0  0  0  0  0  0  0  0
  147.1680  153.0270  132.2350 O   0  0  0  0  0  0  0  0  0  0  0  0
  149.8650  156.8030  133.0020 H   0  0  0  0  0  0  0  0  0  0  0  0
  148.4990  156.7160  131.7880 H   0  0  0  0  0  0  0  0  0  0  0  0
  147.3321  161.0497  133.0815 H   0  0  0  0  0  0  0  0  0  0  0  0
  144.8405  162.1717  133.5881 H   0  0  0  0  0  0  0  0  0  0  0  0
  142.4752  161.6713  134.1734 H   0  0  0  0  0  0  0  0  0  0  0  0
  143.4515  157.4793  134.2005 H   0  0  0  0  0  0  0  0  0  0  0  0
  146.2030  156.1337  135.6122 H   0  0  0  0  0  0  0  0  0  0  0  0
  144.7335  155.6555  134.6150 H   0  0  0  0  0  0  0  0  0  0  0  0
  145.6411  153.6034  135.1066 H   0  0  0  0  0  0  0  0  0  0  0  0
  146.3749  153.9514  133.5224 H   0  0  0  0  0  0  0  0  0  0  0  0
  148.1694  155.2212  135.0965 H   0  0  0  0  0  0  0  0  0  0  0  0
  147.5575  153.9595  136.2669 H   0  0  0  0  0  0  0  0  0  0  0  0
  148.6300  155.2430  131.8600 H   0  0  0  0  0  0  0  0  0  0  0  0
  146.8670  153.9000  131.8640 H   0  0  0  0  0  0  0  0  0  0  0  0
  1  2  1  0
  2  3  2  0
  2  4  1  0
  4  5  2  0
  5  6  1  0
  6  7  2  0
  7  8  1  0
  8  9  2  0
  9 10  1  0
 10 11  1  0
 10 12  1  0
 10 13  1  0
  9 14  1  0
 14 15  2  0
 15 16  1  0
 16 17  1  0
 17 18  2  0
 17 19  1  0
 19 20  1  0
 20 21  1  0
 21 22  1  0
 22 23  1  0
 23 24  2  0
 23 25  1  0
 23 26  1  0
 16  4  1  0
 15  6  1  0
  1 27  1  0
  1 28  1  0
  5 29  1  0
  7 30  1  0
  8 31  1  0
 14 32  1  0
 19 33  1  0
 19 34  1  0
 20 35  1  0
 20 36  1  0
 21 37  1  0
 21 38  1  0
 25 39  1  0
 26 40  1  0
M  END
>  <smiles>  (54) 
NC(=O)c1cc2ccc(C(F)(F)F)cc2n1C(=O)CCCOP(=O)(O)O

>  <score_type>  (54) 
oracle

>  <origin>  (54) 
adg

>  <m_score__min__energy>  (54) 
-6.4199999999999999

>  <m_primary>  (54) 
energy

$$$$
58:0
     RDKit          3D

 47 48  0  0  0  0  0  0  0  0999 V2000
  145.1560  153.0550  133.4060 C   0  0  0  0  0  0  0  0  0  0  0  0
  145.3290  154.3200  134.0310 N   0  0  0  0  0  0  0  0  0  0  0  0
  145.7110  155.3980  133.0710 C   0  0  2  0  0  0  0  0  0  0  0  0
  146.8550  154.9320  132.2440 C   0  0  0  0  0  0  0  0  0  0  0  0
  148.1110  154.8410  133.0740 C   0  0  0  0  0  0  0  0  0  0  0  0
  149.2230  155.1860  132.5900 O   0  0  0  0  0  0  0  0  0  0  0  0
  148.0800  154.3860  134.3660 O   0  0  0  0  0  0  0  0  0  0  0  0
  145.9230  156.5630  133.9130 C   0  0  0  0  0  0  0  0  0  0  0  0
  146.2830  156.2230  135.1210 O   0  0  0  0  0  0  0  0  0  0  0  0
  145.8220  157.9340  133.6710 N   0  0  0  0  0  0  0  0  0  0  0  0
  146.7590  158.8630  133.3690 C   0  0  0  0  0  0  0  0  0  0  0  0
  148.1490  158.7430  133.0120 C   0  0  0  0  0  0  0  0  0  0  0  0
  148.8560  157.6100  132.5850 N   0  0  0  0  0  0  0  0  0  0  0  0
  148.8630  159.8070  133.0770 O   0  0  0  0  0  0  0  0  0  0  0  0
  146.1370  160.1330  133.3390 C   0  0  0  0  0  0  0  0  0  0  0  0
  144.8180  159.9570  133.6220 C   0  0  0  0  0  0  0  0  0  0  0  0
  143.8040  160.8790  133.7100 C   0  0  0  0  0  0  0  0  0  0  0  0
  142.5190  160.4910  134.0110 C   0  0  0  0  0  0  0  0  0  0  0  0
  142.2970  159.1500  134.2190 C   0  0  0  0  0  0  0  0  0  0  0  0
  140.9240  158.7200  134.5430 C   0  0  0  0  0  0  0  0  0  0  0  0
  139.9840  158.9460  133.3540 C   0  0  0  0  0  0  0  0  0  0  0  0
  139.6000  157.6350  132.7170 C   0  0  0  0  0  0  0  0  0  0  0  0
  138.4320  157.0320  133.3440 N   0  0  0  0  0  0  0  0  0  0  0  0
  143.3370  158.2250  134.1260 C   0  0  0  0  0  0  0  0  0  0  0  0
  144.6360  158.6130  133.8210 C   0  0  0  0  0  0  0  0  0  0  0  0
  145.0496  152.2769  134.1763 H   0  0  0  0  0  0  0  0  0  0  0  0
  144.2524  153.0763  132.7791 H   0  0  0  0  0  0  0  0  0  0  0  0
  146.0321  152.8329  132.7791 H   0  0  0  0  0  0  0  0  0  0  0  0
  145.9780  154.2660  134.8180 H   0  0  0  0  0  0  0  0  0  0  0  0
  144.9599  155.6640  132.3126 H   0  0  0  0  0  0  0  0  0  0  0  0
  146.6218  153.9391  131.8319 H   0  0  0  0  0  0  0  0  0  0  0  0
  147.0203  155.6538  131.4305 H   0  0  0  0  0  0  0  0  0  0  0  0
  147.2880  154.5620  134.9900 H   0  0  0  0  0  0  0  0  0  0  0  0
  148.5740  157.0980  131.7320 H   0  0  0  0  0  0  0  0  0  0  0  0
  149.6930  157.2560  133.1300 H   0  0  0  0  0  0  0  0  0  0  0  0
  146.6316  161.0920  133.1250 H   0  0  0  0  0  0  0  0  0  0  0  0
  144.0225  161.9432  133.5373 H   0  0  0  0  0  0  0  0  0  0  0  0
  141.7019  161.2240  134.0824 H   0  0  0  0  0  0  0  0  0  0  0  0
  140.9325  157.6497  134.7968 H   0  0  0  0  0  0  0  0  0  0  0  0
  140.5618  159.3145  135.3947 H   0  0  0  0  0  0  0  0  0  0  0  0
  139.0748  159.4560  133.7052 H   0  0  0  0  0  0  0  0  0  0  0  0
  140.5045  159.5619  132.6058 H   0  0  0  0  0  0  0  0  0  0  0  0
  139.3787  157.8106  131.6539 H   0  0  0  0  0  0  0  0  0  0  0  0
  140.4439  156.9411  132.8447 H   0  0  0  0  0  0  0  0  0  0  0  0
  137.5370  157.4980  133.0890 H   0  0  0  0  0  0  0  0  0  0  0  0
  138.3540  156.0340  133.0310 H   0  0  0  0  0  0  0  0  0  0  0  0
  143.1231  157.1599  134.2988 H   0  0  0  0  0  0  0  0  0  0  0  0
  1  2  1  0
  2  3  1  0
  3  4  1  0
  4  5  1  0
  5  6  2  0
  5  7  1  0
  3  8  1  0
  8  9  2  0
  8 10  1  0
 10 11  1  0
 11 12  1  0
 12 13  1  0
 12 14  2  0
 11 15  2  0
 15 16  1  0
 16 17  2  0
 17 18  1  0
 18 19  2  0
 19 20  1  0
 20 21  1  0
 21 22  1  0
 22 23  1  0
 19 24  1  0
 24 25  2  0
 25 10  1  0
 25 16  1  0
  1 26  1  0
  1 27  1  0
  1 28  1  0
  2 29  1  0
  3 30  1  6
  4 31  1  0
  4 32  1  0
  7 33  1  0
 13 34  1  0
 13 35  1  0
 15 36  1  0
 17 37  1  0
 18 38  1  0
 20 39  1  0
 20 40  1  0
 21 41  1  0
 21 42  1  0
 22 43  1  0
 22 44  1  0
 23 45  1  0
 23 46  1  0
 24 47  1  0
M  END
>  <smiles>  (55) 
CN[C@H](CC(=O)O)C(=O)n1c(C(N)=O)cc2ccc(CCCN)cc21

>  <score_type>  (55) 
oracle

>  <origin>  (55) 
adg

>  <m_score__min__energy>  (55) 
-6.5300000000000002

>  <m_primary>  (55) 
energy

$$$$
59:0
     RDKit          3D

 47 49  0  0  0  0  0  0  0  0999 V2000
  148.0640  157.2200  134.2400 C   0  0  0  0  0  0  0  0  0  0  0  0
  147.0660  157.4880  133.2510 N   0  0  0  0  0  0  0  0  0  0  0  0
  146.8530  156.3870  132.3980 O   0  0  0  0  0  0  0  0  0  0  0  0
  146.2800  158.5990  132.9840 C   0  0  0  0  0  0  0  0  0  0  0  0
  146.8230  159.4140  132.1140 O   0  0  0  0  0  0  0  0  0  0  0  0
  145.0320  159.0410  133.4560 N   0  0  0  0  0  0  0  0  0  0  0  0
  144.5300  160.2410  133.7460 C   0  0  0  0  0  0  0  0  0  0  0  0
  145.2160  161.5060  134.0410 C   0  0  0  0  0  0  0  0  0  0  0  0
  146.6350  161.6140  133.7970 N   0  0  0  0  0  0  0  0  0  0  0  0
  144.6700  162.5260  134.4950 O   0  0  0  0  0  0  0  0  0  0  0  0
  143.1460  160.1780  133.9550 C   0  0  0  0  0  0  0  0  0  0  0  0
  142.7990  158.8760  133.7900 C   0  0  0  0  0  0  0  0  0  0  0  0
  141.5530  158.2850  133.8880 C   0  0  0  0  0  0  0  0  0  0  0  0
  141.4220  156.9300  133.6770 C   0  0  0  0  0  0  0  0  0  0  0  0
  142.5510  156.2000  133.3710 C   0  0  0  0  0  0  0  0  0  0  0  0
  142.4540  154.7970  133.1400 N   0  0  0  0  0  0  0  0  0  0  0  0
  143.3850  154.0520  132.3230 C   0  0  0  0  0  0  0  0  0  0  0  0
  143.6140  152.7220  133.0610 C   0  0  0  0  0  0  0  0  0  0  0  0
  142.3800  151.9790  132.9070 N   0  0  0  0  0  0  0  0  0  0  0  0
  142.4480  150.5940  132.6120 C   0  0  0  0  0  0  0  0  0  0  0  0
  143.6240  150.1080  132.5070 O   0  0  0  0  0  0  0  0  0  0  0  0
  141.2760  149.7500  132.4330 C   0  0  0  0  0  0  0  0  0  0  0  0
  140.0960  150.1750  132.4490 O   0  0  0  0  0  0  0  0  0  0  0  0
  141.4530  148.3920  132.2310 O   0  0  0  0  0  0  0  0  0  0  0  0
  141.1460  152.7140  133.0680 C   0  0  0  0  0  0  0  0  0  0  0  0
  141.3640  154.0470  133.7440 C   0  0  0  0  0  0  0  0  0  0  0  0
  143.7930  156.8260  133.2780 C   0  0  0  0  0  0  0  0  0  0  0  0
  143.9470  158.1900  133.4880 C   0  0  0  0  0  0  0  0  0  0  0  0
  147.6273  157.3373  135.2428 H   0  0  0  0  0  0  0  0  0  0  0  0
  148.4332  156.1909  134.1189 H   0  0  0  0  0  0  0  0  0  0  0  0
  148.8990  157.9257  134.1189 H   0  0  0  0  0  0  0  0  0  0  0  0
  146.5750  156.7270  131.5070 H   0  0  0  0  0  0  0  0  0  0  0  0
  147.2400  162.0380  134.5230 H   0  0  0  0  0  0  0  0  0  0  0  0
  147.0110  161.2670  132.9120 H   0  0  0  0  0  0  0  0  0  0  0  0
  142.4760  161.0145  134.2027 H   0  0  0  0  0  0  0  0  0  0  0  0
  140.6704  158.8939  134.1333 H   0  0  0  0  0  0  0  0  0  0  0  0
  140.4392  156.4416  133.7510 H   0  0  0  0  0  0  0  0  0  0  0  0
  142.9587  153.8688  131.3256 H   0  0  0  0  0  0  0  0  0  0  0  0
  144.3262  154.6019  132.1755 H   0  0  0  0  0  0  0  0  0  0  0  0
  144.4533  152.1716  132.6108 H   0  0  0  0  0  0  0  0  0  0  0  0
  143.8669  152.8800  134.1198 H   0  0  0  0  0  0  0  0  0  0  0  0
  142.4080  148.0170  132.1540 H   0  0  0  0  0  0  0  0  0  0  0  0
  140.7041  152.8874  132.0757 H   0  0  0  0  0  0  0  0  0  0  0  0
  140.4759  152.1168  133.7038 H   0  0  0  0  0  0  0  0  0  0  0  0
  140.4403  154.6392  133.6658 H   0  0  0  0  0  0  0  0  0  0  0  0
  141.6278  153.8541  134.7943 H   0  0  0  0  0  0  0  0  0  0  0  0
  144.6779  156.2212  133.0308 H   0  0  0  0  0  0  0  0  0  0  0  0
  1  2  1  0
  2  3  1  0
  2  4  1  0
  4  5  2  0
  4  6  1  0
  6  7  1  0
  7  8  1  0
  8  9  1  0
  8 10  2  0
  7 11  2  0
 11 12  1  0
 12 13  2  0
 13 14  1  0
 14 15  2  0
 15 16  1  0
 16 17  1  0
 17 18  1  0
 18 19  1  0
 19 20  1  0
 20 21  2  0
 20 22  1  0
 22 23  2  0
 22 24  1  0
 19 25  1  0
 25 26  1  0
 15 27  1  0
 27 28  2  0
 28  6  1  0
 28 12  1  0
 26 16  1  0
  1 29  1  0
  1 30  1  0
  1 31  1  0
  3 32  1  0
  9 33  1  0
  9 34  1  0
 11 35  1  0
 13 36  1  0
 14 37  1  0
 17 38  1  0
 17 39  1  0
 18 40  1  0
 18 41  1  0
 24 42  1  0
 25 43  1  0
 25 44  1  0
 26 45  1  0
 26 46  1  0
 27 47  1  0
M  END
>  <smiles>  (56) 
CN(O)C(=O)n1c(C(N)=O)cc2ccc(N3CCN(C(=O)C(=O)O)CC3)cc21

>  <score_type>  (56) 
oracle

>  <origin>  (56) 
adg

>  <m_score__min__energy>  (56) 
-8.0899999999999999

>  <m_primary>  (56) 
energy

$$$$
60:0
     RDKit          3D

 43 44  0  0  0  0  0  0  0  0999 V2000
  146.0770  160.4460  133.5070 C   0  0  0  0  0  0  0  0  0  0  0  0
  146.8820  159.2230  133.2520 C   0  0  0  0  0  0  0  0  0  0  0  0
  148.1440  159.3570  132.7230 C   0  0  0  0  0  0  0  0  0  0  0  0
  148.8680  158.2280  132.4950 C   0  0  0  0  0  0  0  0  0  0  0  0
  148.3550  156.9840  132.7860 C   0  0  0  0  0  0  0  0  0  0  0  0
  148.8960  155.7400  132.6400 C   0  0  0  0  0  0  0  0  0  0  0  0
  147.9540  154.7940  133.0890 C   0  0  0  0  0  0  0  0  0  0  0  0
  148.2420  153.3860  133.0590 C   0  0  0  0  0  0  0  0  0  0  0  0
  147.1770  152.4760  132.6610 N   0  0  0  0  0  0  0  0  0  0  0  0
  149.3000  152.7930  133.3310 O   0  0  0  0  0  0  0  0  0  0  0  0
  146.8520  155.4680  133.5020 N   0  0  0  0  0  0  0  0  0  0  0  0
  145.6410  155.0120  134.0290 C   0  0  0  0  0  0  0  0  0  0  0  0
  144.8170  155.8810  134.4870 O   0  0  0  0  0  0  0  0  0  0  0  0
  145.1290  153.6320  134.1520 C   0  0  0  0  0  0  0  0  0  0  0  0
  144.4360  153.3290  132.8390 N   0  0  0  0  0  0  0  0  0  0  0  0
  144.1740  154.4250  131.9420 C   0  0  0  0  0  0  0  0  0  0  0  0
  144.1090  151.9850  132.6150 C   0  0  0  0  0  0  0  0  0  0  0  0
  145.0780  151.2280  132.2410 O   0  0  0  0  0  0  0  0  0  0  0  0
  142.8630  151.3670  132.7490 N   0  0  0  0  0  0  0  0  0  0  0  0
  142.8150  149.9220  132.4470 C   0  0  0  0  0  0  0  0  0  0  0  0
  141.6320  152.0060  133.1510 C   0  0  0  0  0  0  0  0  0  0  0  0
  147.1040  156.8020  133.3140 C   0  0  0  0  0  0  0  0  0  0  0  0
  146.3720  157.9620  133.5430 C   0  0  0  0  0  0  0  0  0  0  0  0
  145.9762  160.5991  134.5916 H   0  0  0  0  0  0  0  0  0  0  0  0
  146.5797  161.3159  133.0591 H   0  0  0  0  0  0  0  0  0  0  0  0
  145.0793  160.3282  133.0591 H   0  0  0  0  0  0  0  0  0  0  0  0
  148.5569  160.3497  132.4906 H   0  0  0  0  0  0  0  0  0  0  0  0
  149.8797  158.3104  132.0712 H   0  0  0  0  0  0  0  0  0  0  0  0
  149.8958  155.5146  132.2404 H   0  0  0  0  0  0  0  0  0  0  0  0
  146.8980  151.7270  133.3400 H   0  0  0  0  0  0  0  0  0  0  0  0
  146.7360  152.6020  131.7210 H   0  0  0  0  0  0  0  0  0  0  0  0
  145.9587  152.9292  134.3181 H   0  0  0  0  0  0  0  0  0  0  0  0
  144.4418  153.5301  135.0049 H   0  0  0  0  0  0  0  0  0  0  0  0
  143.9571  155.3322  132.5251 H   0  0  0  0  0  0  0  0  0  0  0  0
  145.0559  154.5988  131.3079 H   0  0  0  0  0  0  0  0  0  0  0  0
  143.3088  154.1811  131.3079 H   0  0  0  0  0  0  0  0  0  0  0  0
  142.7960  149.3514  133.3872 H   0  0  0  0  0  0  0  0  0  0  0  0
  141.9090  149.6991  131.8644 H   0  0  0  0  0  0  0  0  0  0  0  0
  143.7043  149.6394  131.8644 H   0  0  0  0  0  0  0  0  0  0  0  0
  141.5757  152.0352  134.2492 H   0  0  0  0  0  0  0  0  0  0  0  0
  141.6051  153.0319  132.7550 H   0  0  0  0  0  0  0  0  0  0  0  0
  140.7775  151.4376  132.7550 H   0  0  0  0  0  0  0  0  0  0  0  0
  145.3602  157.8800  133.9666 H   0  0  0  0  0  0  0  0  0  0  0  0
  1  2  1  0
  2  3  2  0
  3  4  1  0
  4  5  2  0
  5  6  1  0
  6  7  2  0
  7  8  1  0
  8  9  1  0
  8 10  2  0
  7 11  1  0
 11 12  1  0
 12 13  2  0
 12 14  1  0
 14 15  1  0
 15 16  1  0
 15 17  1  0
 17 18  2  0
 17 19  1  0
 19 20  1  0
 19 21  1  0
 11 22  1  0
 22 23  2  0
 23  2  1  0
 22  5  1  0
  1 24  1  0
  1 25  1  0
  1 26  1  0
  3 27  1  0
  4 28  1  0
  6 29  1  0
  9 30  1  0
  9 31  1  0
 14 32  1  0
 14 33  1  0
 16 34  1  0
 16 35  1  0
 16 36  1  0
 20 37  1  0
 20 38  1  0
 20 39  1  0
 21 40  1  0
 21 41  1  0
 21 42  1  0
 23 43  1  0
M  END
>  <smiles>  (57) 
Cc1ccc2cc(C(N)=O)n(C(=O)CN(C)C(=O)N(C)C)c2c1

>  <score_type>  (57) 
oracle

>  <origin>  (57) 
adg

>  <m_score__min__energy>  (57) 
-7.1500000000000004

>  <m_primary>  (57) 
energy

$$$$
61:0
     RDKit          3D

 42 43  0  0  1  0  0  0  0  0999 V2000
  145.6420  153.2970  133.0560 C   0  0  0  0  0  0  0  0  0  0  0  0
  145.3940  154.7190  132.6650 C   0  0  1  0  0  0  0  0  0  0  0  0
  143.9530  154.9330  132.4220 C   0  0  0  0  0  0  0  0  0  0  0  0
  143.6190  156.0200  131.8730 O   0  0  0  0  0  0  0  0  0  0  0  0
  142.9480  154.0550  132.7410 O   0  0  0  0  0  0  0  0  0  0  0  0
  145.8150  155.5970  133.8010 N   0  0  0  0  0  0  0  0  0  0  0  0
  145.6020  155.0330  135.0910 C   0  0  0  0  0  0  0  0  0  0  0  0
  146.4360  156.7800  133.3950 C   0  0  0  0  0  0  0  0  0  0  0  0
  147.5680  156.5370  132.7890 O   0  0  0  0  0  0  0  0  0  0  0  0
  146.1140  158.1330  133.5080 N   0  0  0  0  0  0  0  0  0  0  0  0
  146.7850  159.2610  133.2650 C   0  0  0  0  0  0  0  0  0  0  0  0
  148.2260  159.4920  133.1270 C   0  0  0  0  0  0  0  0  0  0  0  0
  149.1440  158.6220  133.8330 N   0  0  0  0  0  0  0  0  0  0  0  0
  148.7520  160.3820  132.4490 O   0  0  0  0  0  0  0  0  0  0  0  0
  145.9350  160.3770  133.3270 C   0  0  0  0  0  0  0  0  0  0  0  0
  144.7060  159.8980  133.6260 C   0  0  0  0  0  0  0  0  0  0  0  0
  143.5150  160.5890  133.8000 C   0  0  0  0  0  0  0  0  0  0  0  0
  142.3560  159.9150  134.1030 C   0  0  0  0  0  0  0  0  0  0  0  0
  142.4370  158.5470  134.2210 C   0  0  0  0  0  0  0  0  0  0  0  0
  141.1940  157.8090  134.5460 C   0  0  0  0  0  0  0  0  0  0  0  0
  141.3190  156.3540  134.2800 C   0  0  0  0  0  0  0  0  0  0  0  0
  141.6790  155.5160  135.1480 O   0  0  0  0  0  0  0  0  0  0  0  0
  141.0170  155.9220  132.9950 O   0  0  0  0  0  0  0  0  0  0  0  0
  143.6440  157.8580  134.0420 C   0  0  0  0  0  0  0  0  0  0  0  0
  144.8170  158.5390  133.7370 C   0  0  0  0  0  0  0  0  0  0  0  0
  145.6562  153.2155  134.1529 H   0  0  0  0  0  0  0  0  0  0  0  0
  144.8413  152.6605  132.6514 H   0  0  0  0  0  0  0  0  0  0  0  0
  146.6109  152.9691  132.6514 H   0  0  0  0  0  0  0  0  0  0  0  0
  145.9585  154.9531  131.7504 H   0  0  0  0  0  0  0  0  0  0  0  0
  142.3140  154.2800  133.5190 H   0  0  0  0  0  0  0  0  0  0  0  0
  145.8791  155.7667  135.8623 H   0  0  0  0  0  0  0  0  0  0  0  0
  144.5410  154.7656  135.2036 H   0  0  0  0  0  0  0  0  0  0  0  0
  146.2214  154.1310  135.2036 H   0  0  0  0  0  0  0  0  0  0  0  0
  149.6050  158.9420  134.7150 H   0  0  0  0  0  0  0  0  0  0  0  0
  149.2970  157.6830  133.3980 H   0  0  0  0  0  0  0  0  0  0  0  0
  146.2128  161.4290  133.1650 H   0  0  0  0  0  0  0  0  0  0  0  0
  143.4984  161.6838  133.6947 H   0  0  0  0  0  0  0  0  0  0  0  0
  141.4039  160.4472  134.2451 H   0  0  0  0  0  0  0  0  0  0  0  0
  140.9635  157.9556  135.6115 H   0  0  0  0  0  0  0  0  0  0  0  0
  140.3912  158.2015  133.9046 H   0  0  0  0  0  0  0  0  0  0  0  0
  141.7250  155.7870  132.2800 H   0  0  0  0  0  0  0  0  0  0  0  0
  143.6636  156.7629  134.1443 H   0  0  0  0  0  0  0  0  0  0  0  0
  1  2  1  0
  2  3  1  0
  3  4  2  0
  3  5  1  0
  2  6  1  0
  6  7  1  0
  6  8  1  0
  8  9  2  0
  8 10  1  0
 10 11  1  0
 11 12  1  0
 12 13  1  0
 12 14  2  0
 11 15  2  0
 15 16  1  0
 16 17  2  0
 17 18  1  0
 18 19  2  0
 19 20  1  0
 20 21  1  0
 21 22  2  0
 21 23  1  0
 19 24  1  0
 24 25  2  0
 25 10  1  0
 25 16  1  0
  1 26  1  0
  1 27  1  0
  1 28  1  0
  2 29  1  6
  5 30  1  0
  7 31  1  0
  7 32  1  0
  7 33  1  0
 13 34  1  0
 13 35  1  0
 15 36  1  0
 17 37  1  0
 18 38  1  0
 20 39  1  0
 20 40  1  0
 23 41  1  0
 24 42  1  0
M  END
>  <smiles>  (58) 
CC(C(=O)O)N(C)C(=O)n1c(C(N)=O)cc2ccc(CC(=O)O)cc21

>  <score_type>  (58) 
oracle

>  <origin>  (58) 
adg

>  <m_score__min__energy>  (58) 
-6.4699999999999998

>  <m_primary>  (58) 
energy

$$$$
62:0
     RDKit          3D

 41 42  0  0  0  0  0  0  0  0999 V2000
  141.3520  152.2290  131.9400 N   0  0  0  0  0  0  0  0  0  0  0  0
  141.7580  151.4270  133.0420 C   0  0  0  0  0  0  0  0  0  0  0  0
  141.2250  150.2890  133.2150 O   0  0  0  0  0  0  0  0  0  0  0  0
  142.7940  151.8620  134.0210 C   0  0  0  0  0  0  0  0  0  0  0  0
  143.2390  153.2070  133.8460 N   0  0  0  0  0  0  0  0  0  0  0  0
  142.6680  154.1050  134.9430 C   0  0  0  0  0  0  0  0  0  0  0  0
  141.5350  154.8940  134.3890 C   0  0  0  0  0  0  0  0  0  0  0  0
  141.2410  154.5160  133.0810 O   0  0  0  0  0  0  0  0  0  0  0  0
  144.0420  153.8720  132.9500 C   0  0  0  0  0  0  0  0  0  0  0  0
  143.4430  153.9010  131.7460 O   0  0  0  0  0  0  0  0  0  0  0  0
  145.2710  154.5160  132.8750 N   0  0  0  0  0  0  0  0  0  0  0  0
  145.3850  155.8790  133.0040 C   0  0  0  0  0  0  0  0  0  0  0  0
  144.4160  156.9510  133.0560 C   0  0  0  0  0  0  0  0  0  0  0  0
  143.2060  156.8730  132.2350 N   0  0  0  0  0  0  0  0  0  0  0  0
  144.4600  157.9970  133.7380 O   0  0  0  0  0  0  0  0  0  0  0  0
  146.7600  156.2030  132.9880 C   0  0  0  0  0  0  0  0  0  0  0  0
  147.4690  155.0570  132.8510 C   0  0  0  0  0  0  0  0  0  0  0  0
  148.8320  154.8600  132.7970 C   0  0  0  0  0  0  0  0  0  0  0  0
  149.3510  153.5920  132.6720 C   0  0  0  0  0  0  0  0  0  0  0  0
  148.4560  152.5530  132.6040 C   0  0  0  0  0  0  0  0  0  0  0  0
  148.9740  151.1720  132.4690 C   0  0  0  0  0  0  0  0  0  0  0  0
  149.9740  150.9990  133.4240 F   0  0  0  0  0  0  0  0  0  0  0  0
  149.5460  151.0620  131.2080 F   0  0  0  0  0  0  0  0  0  0  0  0
  147.0940  152.7740  132.6600 C   0  0  0  0  0  0  0  0  0  0  0  0
  146.5410  154.0370  132.7840 C   0  0  0  0  0  0  0  0  0  0  0  0
  142.0570  152.3240  131.1510 H   0  0  0  0  0  0  0  0  0  0  0  0
  140.4200  152.7000  131.8990 H   0  0  0  0  0  0  0  0  0  0  0  0
  142.3733  151.7671  135.0329 H   0  0  0  0  0  0  0  0  0  0  0  0
  143.6702  151.2167  133.8603 H   0  0  0  0  0  0  0  0  0  0  0  0
  142.3106  153.4841  135.7777 H   0  0  0  0  0  0  0  0  0  0  0  0
  143.4505  154.7872  135.3066 H   0  0  0  0  0  0  0  0  0  0  0  0
  140.6461  154.7319  135.0163 H   0  0  0  0  0  0  0  0  0  0  0  0
  141.8231  155.9556  134.3850 H   0  0  0  0  0  0  0  0  0  0  0  0
  141.8340  154.8750  132.4030 H   0  0  0  0  0  0  0  0  0  0  0  0
  142.6920  155.9660  132.2590 H   0  0  0  0  0  0  0  0  0  0  0  0
  142.9080  157.6940  131.6720 H   0  0  0  0  0  0  0  0  0  0  0  0
  147.1832  157.2148  133.0725 H   0  0  0  0  0  0  0  0  0  0  0  0
  149.5106  155.7238  132.8543 H   0  0  0  0  0  0  0  0  0  0  0  0
  150.4363  153.4181  132.6284 H   0  0  0  0  0  0  0  0  0  0  0  0
  148.1766  150.4263  132.6034 H   0  0  0  0  0  0  0  0  0  0  0  0
  146.4184  151.9078  132.6036 H   0  0  0  0  0  0  0  0  0  0  0  0
  1  2  1  0
  2  3  2  0
  2  4  1  0
  4  5  1  0
  5  6  1  0
  6  7  1  0
  7  8  1  0
  5  9  1  0
  9 10  2  0
  9 11  1  0
 11 12  1  0
 12 13  1  0
 13 14  1  0
 13 15  2  0
 12 16  2  0
 16 17  1  0
 17 18  2  0
 18 19  1  0
 19 20  2  0
 20 21  1  0
 21 22  1  0
 21 23  1  0
 20 24  1  0
 24 25  2  0
 25 11  1  0
 25 17  1  0
  1 26  1  0
  1 27  1  0
  4 28  1  0
  4 29  1  0
  6 30  1  0
  6 31  1  0
  7 32  1  0
  7 33  1  0
  8 34  1  0
 14 35  1  0
 14 36  1  0
 16 37  1  0
 18 38  1  0
 19 39  1  0
 21 40  1  0
 24 41  1  0
M  END
>  <smiles>  (59) 
NC(=O)CN(CCO)C(=O)n1c(C(N)=O)cc2ccc(C(F)F)cc21

>  <score_type>  (59) 
oracle

>  <origin>  (59) 
adg

>  <m_score__min__energy>  (59) 
-6.8300000000000001

>  <m_primary>  (59) 
energy

$$$$
63:0
     RDKit          3D

 38 39  0  0  0  0  0  0  0  0999 V2000
  141.5780  155.7490  137.7290 C   0  0  0  0  0  0  0  0  0  0  0  0
  142.7130  155.8800  136.9340 O   0  0  0  0  0  0  0  0  0  0  0  0
  142.7720  155.5970  135.5750 C   0  0  0  0  0  0  0  0  0  0  0  0
  143.1830  154.4740  135.1430 O   0  0  0  0  0  0  0  0  0  0  0  0
  142.3280  156.6830  134.6520 C   0  0  0  0  0  0  0  0  0  0  0  0
  143.4670  157.5080  134.1860 C   0  0  0  0  0  0  0  0  0  0  0  0
  143.2540  158.8620  134.0500 C   0  0  0  0  0  0  0  0  0  0  0  0
  144.3160  159.6210  133.6170 C   0  0  0  0  0  0  0  0  0  0  0  0
  145.5310  159.0340  133.3350 C   0  0  0  0  0  0  0  0  0  0  0  0
  146.6940  159.6020  132.8980 C   0  0  0  0  0  0  0  0  0  0  0  0
  147.6390  158.5660  132.7630 C   0  0  0  0  0  0  0  0  0  0  0  0
  148.9640  158.8740  132.2710 C   0  0  0  0  0  0  0  0  0  0  0  0
  149.9890  157.9920  131.9190 N   0  0  0  0  0  0  0  0  0  0  0  0
  149.2450  160.1220  132.1250 O   0  0  0  0  0  0  0  0  0  0  0  0
  147.0700  157.3970  133.1130 N   0  0  0  0  0  0  0  0  0  0  0  0
  147.6080  156.1130  133.2900 C   0  0  0  0  0  0  0  0  0  0  0  0
  148.6810  155.8550  132.6370 O   0  0  0  0  0  0  0  0  0  0  0  0
  147.1280  155.0280  134.0940 C   0  0  0  0  0  0  0  0  0  0  0  0
  147.0180  155.2400  135.4270 C   0  0  0  0  0  0  0  0  0  0  0  0
  146.5260  154.1410  136.2890 C   0  0  0  0  0  0  0  0  0  0  0  0
  147.3210  153.2650  136.7100 O   0  0  0  0  0  0  0  0  0  0  0  0
  145.1880  154.0540  136.6470 O   0  0  0  0  0  0  0  0  0  0  0  0
  145.7780  157.6910  133.4580 C   0  0  0  0  0  0  0  0  0  0  0  0
  144.7030  156.9230  133.8970 C   0  0  0  0  0  0  0  0  0  0  0  0
  141.8675  155.7824  138.7897 H   0  0  0  0  0  0  0  0  0  0  0  0
  140.8818  156.5727  137.5128 H   0  0  0  0  0  0  0  0  0  0  0  0
  141.0878  154.7883  137.5128 H   0  0  0  0  0  0  0  0  0  0  0  0
  141.8360  156.2294  133.7789 H   0  0  0  0  0  0  0  0  0  0  0  0
  141.6342  157.3365  135.2012 H   0  0  0  0  0  0  0  0  0  0  0  0
  142.2782  159.3159  134.2775 H   0  0  0  0  0  0  0  0  0  0  0  0
  144.1947  160.7074  133.4945 H   0  0  0  0  0  0  0  0  0  0  0  0
  146.8613  160.6692  132.6903 H   0  0  0  0  0  0  0  0  0  0  0  0
  150.9960  158.1790  132.1460 H   0  0  0  0  0  0  0  0  0  0  0  0
  149.7510  157.1150  131.4140 H   0  0  0  0  0  0  0  0  0  0  0  0
  146.8593  154.0602  133.6455 H   0  0  0  0  0  0  0  0  0  0  0  0
  147.2898  156.2129  135.8624 H   0  0  0  0  0  0  0  0  0  0  0  0
  144.6510  154.9030  136.7240 H   0  0  0  0  0  0  0  0  0  0  0  0
  144.8286  155.8370  134.0185 H   0  0  0  0  0  0  0  0  0  0  0  0
  1  2  1  0
  2  3  1  0
  3  4  2  0
  3  5  1  0
  5  6  1  0
  6  7  2  0
  7  8  1  0
  8  9  2  0
  9 10  1  0
 10 11  2  0
 11 12  1  0
 12 13  1  0
 12 14  2  0
 11 15  1  0
 15 16  1  0
 16 17  2  0
 16 18  1  0
 18 19  2  0
 19 20  1  0
 20 21  2  0
 20 22  1  0
 15 23  1  0
 23 24  2  0
 24  6  1  0
 23  9  1  0
  1 25  1  0
  1 26  1  0
  1 27  1  0
  5 28  1  0
  5 29  1  0
  7 30  1  0
  8 31  1  0
 10 32  1  0
 13 33  1  0
 13 34  1  0
 18 35  1  0
 19 36  1  0
 22 37  1  0
 24 38  1  0
M  END
>  <smiles>  (60) 
COC(=O)Cc1ccc2cc(C(N)=O)n(C(=O)/C=C/C(=O)O)c2c1

>  <score_type>  (60) 
oracle

>  <origin>  (60) 
adg

>  <m_score__min__energy>  (60) 
-6.9400000000000004

>  <m_primary>  (60) 
energy

$$$$
65:0
     RDKit          3D

 36 37  0  0  0  0  0  0  0  0999 V2000
  149.2680  157.1950  132.3750 N   0  0  0  0  0  0  0  0  0  0  0  0
  148.1720  156.4210  132.9430 C   0  0  0  0  0  0  0  0  0  0  0  0
  148.4900  155.2430  133.1770 O   0  0  0  0  0  0  0  0  0  0  0  0
  146.9110  157.0790  133.1570 C   0  0  0  0  0  0  0  0  0  0  0  0
  145.7890  156.3700  133.6290 C   0  0  0  0  0  0  0  0  0  0  0  0
  144.7450  157.2210  133.7400 C   0  0  0  0  0  0  0  0  0  0  0  0
  143.4530  156.9990  134.1560 C   0  0  0  0  0  0  0  0  0  0  0  0
  142.5400  158.0170  134.1930 C   0  0  0  0  0  0  0  0  0  0  0  0
  142.9600  159.2660  133.8020 C   0  0  0  0  0  0  0  0  0  0  0  0
  141.9970  160.4150  133.8260 C   0  0  0  0  0  0  0  0  0  0  0  0
  142.6670  161.6060  133.6490 F   0  0  0  0  0  0  0  0  0  0  0  0
  141.3070  160.3640  135.0090 F   0  0  0  0  0  0  0  0  0  0  0  0
  144.2770  159.4810  133.3810 C   0  0  0  0  0  0  0  0  0  0  0  0
  145.2080  158.4620  133.3390 C   0  0  0  0  0  0  0  0  0  0  0  0
  146.5290  158.3640  132.9850 N   0  0  0  0  0  0  0  0  0  0  0  0
  147.2520  159.4800  132.5390 C   0  0  0  0  0  0  0  0  0  0  0  0
  146.7450  160.1030  131.5350 O   0  0  0  0  0  0  0  0  0  0  0  0
  148.5010  160.0540  133.0310 C   0  0  0  0  0  0  0  0  0  0  0  0
  149.5200  159.7480  132.0930 O   0  0  0  0  0  0  0  0  0  0  0  0
  149.6560  160.6500  131.0790 C   0  0  0  0  0  0  0  0  0  0  0  0
  149.5330  159.9570  129.7140 C   0  0  0  0  0  0  0  0  0  0  0  0
  148.9540  158.7120  129.9720 O   0  0  0  0  0  0  0  0  0  0  0  0
  149.3630  157.1100  131.3270 H   0  0  0  0  0  0  0  0  0  0  0  0
  149.8890  157.7690  132.9650 H   0  0  0  0  0  0  0  0  0  0  0  0
  145.7663  155.2967  133.8686 H   0  0  0  0  0  0  0  0  0  0  0  0
  143.1492  155.9875  134.4636 H   0  0  0  0  0  0  0  0  0  0  0  0
  141.5057  157.8421  134.5241 H   0  0  0  0  0  0  0  0  0  0  0  0
  141.2766  160.3449  132.9976 H   0  0  0  0  0  0  0  0  0  0  0  0
  144.5800  160.4929  133.0740 H   0  0  0  0  0  0  0  0  0  0  0  0
  148.3982  161.1448  133.1288 H   0  0  0  0  0  0  0  0  0  0  0  0
  148.7513  159.6385  134.0183 H   0  0  0  0  0  0  0  0  0  0  0  0
  148.8697  161.4141  131.1679 H   0  0  0  0  0  0  0  0  0  0  0  0
  150.6505  161.1146  131.1507 H   0  0  0  0  0  0  0  0  0  0  0  0
  148.8921  160.5459  129.0414 H   0  0  0  0  0  0  0  0  0  0  0  0
  150.5111  159.8552  129.2212 H   0  0  0  0  0  0  0  0  0  0  0  0
  148.2760  158.8060  130.7120 H   0  0  0  0  0  0  0  0  0  0  0  0
  1  2  1  0
  2  3  2  0
  2  4  1  0
  4  5  2  0
  5  6  1  0
  6  7  2  0
  7  8  1  0
  8  9  2  0
  9 10  1  0
 10 11  1  0
 10 12  1  0
  9 13  1  0
 13 14  2  0
 14 15  1  0
 15 16  1  0
 16 17  2  0
 16 18  1  0
 18 19  1  0
 19 20  1  0
 20 21  1  0
 21 22  1  0
 15  4  1  0
 14  6  1  0
  1 23  1  0
  1 24  1  0
  5 25  1  0
  7 26  1  0
  8 27  1  0
 10 28  1  0
 13 29  1  0
 18 30  1  0
 18 31  1  0
 20 32  1  0
 20 33  1  0
 21 34  1  0
 21 35  1  0
 22 36  1  0
M  END
>  <smiles>  (61) 
NC(=O)c1cc2ccc(C(F)F)cc2n1C(=O)COCCO

>  <score_type>  (61) 
oracle

>  <origin>  (61) 
adg

>  <m_score__min__energy>  (61) 
-5.71

>  <m_primary>  (61) 
energy

$$$$
66:0
     RDKit          3D

 54 55  0  0  0  0  0  0  0  0999 V2000
  145.1670  155.0660  132.6090 C   0  0  0  0  0  0  0  0  0  0  0  0
  145.6480  155.7310  133.6290 C   0  0  0  0  0  0  0  0  0  0  0  0
  145.0370  155.3400  134.9380 C   0  0  0  0  0  0  0  0  0  0  0  0
  145.6720  154.5930  135.7430 O   0  0  0  0  0  0  0  0  0  0  0  0
  143.7950  155.7590  135.3240 O   0  0  0  0  0  0  0  0  0  0  0  0
  142.7070  154.8580  135.3030 C   0  0  0  0  0  0  0  0  0  0  0  0
  142.6680  153.9810  136.4760 C   0  0  0  0  0  0  0  0  0  0  0  0
  141.7920  153.0790  136.6260 O   0  0  0  0  0  0  0  0  0  0  0  0
  143.6060  154.1170  137.4730 O   0  0  0  0  0  0  0  0  0  0  0  0
  146.6180  156.7750  133.6830 C   0  0  0  0  0  0  0  0  0  0  0  0
  147.8000  156.3510  134.0620 O   0  0  0  0  0  0  0  0  0  0  0  0
  146.5800  158.1450  133.4110 N   0  0  0  0  0  0  0  0  0  0  0  0
  147.5050  159.0570  133.1080 C   0  0  0  0  0  0  0  0  0  0  0  0
  148.8620  158.8720  132.5640 C   0  0  0  0  0  0  0  0  0  0  0  0
  149.3810  157.5510  132.3680 N   0  0  0  0  0  0  0  0  0  0  0  0
  149.6230  159.8100  132.2490 O   0  0  0  0  0  0  0  0  0  0  0  0
  146.9910  160.3550  133.1740 C   0  0  0  0  0  0  0  0  0  0  0  0
  145.6850  160.2190  133.5280 C   0  0  0  0  0  0  0  0  0  0  0  0
  144.7280  161.1880  133.7320 C   0  0  0  0  0  0  0  0  0  0  0  0
  143.4580  160.7970  134.0970 C   0  0  0  0  0  0  0  0  0  0  0  0
  143.1430  159.4790  134.2570 C   0  0  0  0  0  0  0  0  0  0  0  0
  141.8630  159.0320  134.6330 N   0  0  0  0  0  0  0  0  0  0  0  0
  141.1750  158.0160  133.8180 C   0  0  0  0  0  0  0  0  0  0  0  0
  141.1240  159.4920  135.7960 C   0  0  0  0  0  0  0  0  0  0  0  0
  141.7270  158.9970  137.0760 C   0  0  0  0  0  0  0  0  0  0  0  0
  140.9090  158.0060  137.6820 N   0  0  0  0  0  0  0  0  0  0  0  0
  141.7190  156.8790  138.1820 C   0  0  0  0  0  0  0  0  0  0  0  0
  139.8590  157.4630  136.8240 C   0  0  0  0  0  0  0  0  0  0  0  0
  144.1490  158.5370  134.0380 C   0  0  0  0  0  0  0  0  0  0  0  0
  145.4330  158.8820  133.6720 C   0  0  0  0  0  0  0  0  0  0  0  0
  145.5412  155.2684  131.5946 H   0  0  0  0  0  0  0  0  0  0  0  0
  144.3887  154.3048  132.7664 H   0  0  0  0  0  0  0  0  0  0  0  0
  141.7726  155.4373  135.2671 H   0  0  0  0  0  0  0  0  0  0  0  0
  142.8269  154.2175  134.4168 H   0  0  0  0  0  0  0  0  0  0  0  0
  144.3490  154.8200  137.4550 H   0  0  0  0  0  0  0  0  0  0  0  0
  149.6660  157.0520  133.2440 H   0  0  0  0  0  0  0  0  0  0  0  0
  149.4530  157.1540  131.4110 H   0  0  0  0  0  0  0  0  0  0  0  0
  147.5314  161.2932  132.9797 H   0  0  0  0  0  0  0  0  0  0  0  0
  144.9725  162.2531  133.6061 H   0  0  0  0  0  0  0  0  0  0  0  0
  142.6842  161.5611  134.2624 H   0  0  0  0  0  0  0  0  0  0  0  0
  140.6820  157.2880  134.4790 H   0  0  0  0  0  0  0  0  0  0  0  0
  140.4209  158.5043  133.1832 H   0  0  0  0  0  0  0  0  0  0  0  0
  141.9083  157.4971  133.1832 H   0  0  0  0  0  0  0  0  0  0  0  0
  141.1247  160.5920  135.8051 H   0  0  0  0  0  0  0  0  0  0  0  0
  140.1003  159.0955  135.7269 H   0  0  0  0  0  0  0  0  0  0  0  0
  142.7156  158.5644  136.8627 H   0  0  0  0  0  0  0  0  0  0  0  0
  141.8155  159.8462  137.7696 H   0  0  0  0  0  0  0  0  0  0  0  0
  141.7152  156.8843  139.2820 H   0  0  0  0  0  0  0  0  0  0  0  0
  141.2936  155.9320  137.8184 H   0  0  0  0  0  0  0  0  0  0  0  0
  142.7522  156.9803  137.8184 H   0  0  0  0  0  0  0  0  0  0  0  0
  139.0543  157.0469  137.4479 H   0  0  0  0  0  0  0  0  0  0  0  0
  139.4534  158.2644  136.1890 H   0  0  0  0  0  0  0  0  0  0  0  0
  140.2785  156.6688  136.1890 H   0  0  0  0  0  0  0  0  0  0  0  0
  143.9069  157.4713  134.1629 H   0  0  0  0  0  0  0  0  0  0  0  0
  1  2  2  0
  2  3  1  0
  3  4  2  0
  3  5  1  0
  5  6  1  0
  6  7  1  0
  7  8  2  0
  7  9  1  0
  2 10  1  0
 10 11  2  0
 10 12  1  0
 12 13  1  0
 13 14  1  0
 14 15  1  0
 14 16  2  0
 13 17  2  0
 17 18  1  0
 18 19  2  0
 19 20  1  0
 20 21  2  0
 21 22  1  0
 22 23  1  0
 22 24  1  0
 24 25  1  0
 25 26  1  0
 26 27  1  0
 26 28  1  0
 21 29  1  0
 29 30  2  0
 30 12  1  0
 30 18  1  0
  1 31  1  0
  1 32  1  0
  6 33  1  0
  6 34  1  0
  9 35  1  0
 15 36  1  0
 15 37  1  0
 17 38  1  0
 19 39  1  0
 20 40  1  0
 23 41  1  0
 23 42  1  0
 23 43  1  0
 24 44  1  0
 24 45  1  0
 25 46  1  0
 25 47  1  0
 27 48  1  0
 27 49  1  0
 27 50  1  0
 28 51  1  0
 28 52  1  0
 28 53  1  0
 29 54  1  0
M  END
>  <smiles>  (62) 
C=C(C(=O)OCC(=O)O)C(=O)n1c(C(N)=O)cc2ccc(N(C)CCN(C)C)cc21

>  <score_type>  (62) 
oracle

>  <origin>  (62) 
adg

>  <m_score__min__energy>  (62) 
-8.3599999999999994

>  <m_primary>  (62) 
energy

$$$$
67:0
     RDKit          3D

 37 38  0  0  0  0  0  0  0  0999 V2000
  149.4430  157.4850  132.2030 N   0  0  0  0  0  0  0  0  0  0  0  0
  148.9030  158.8030  132.4500 C   0  0  0  0  0  0  0  0  0  0  0  0
  149.7060  159.7390  132.2470 O   0  0  0  0  0  0  0  0  0  0  0  0
  147.5350  158.9350  132.8960 C   0  0  0  0  0  0  0  0  0  0  0  0
  146.8900  160.1660  132.9780 C   0  0  0  0  0  0  0  0  0  0  0  0
  145.6040  159.9960  133.4280 C   0  0  0  0  0  0  0  0  0  0  0  0
  144.5990  160.8860  133.6690 C   0  0  0  0  0  0  0  0  0  0  0  0
  143.3740  160.4520  134.1270 C   0  0  0  0  0  0  0  0  0  0  0  0
  143.2030  159.1030  134.3320 C   0  0  0  0  0  0  0  0  0  0  0  0
  141.8770  158.6540  134.8260 C   0  0  0  0  0  0  0  0  0  0  0  0
  140.6750  158.5610  133.5070 Cl  0  0  0  0  0  0  0  0  0  0  0  0
  144.2410  158.2050  134.0810 C   0  0  0  0  0  0  0  0  0  0  0  0
  145.4750  158.6210  133.6220 C   0  0  0  0  0  0  0  0  0  0  0  0
  146.6420  158.0160  133.2960 N   0  0  0  0  0  0  0  0  0  0  0  0
  146.8250  156.6200  133.3870 C   0  0  0  0  0  0  0  0  0  0  0  0
  145.8120  155.8860  133.2400 O   0  0  0  0  0  0  0  0  0  0  0  0
  148.0170  155.9730  133.6240 O   0  0  0  0  0  0  0  0  0  0  0  0
  148.4640  154.8300  133.0150 C   0  0  0  0  0  0  0  0  0  0  0  0
  149.6230  154.8260  132.5370 O   0  0  0  0  0  0  0  0  0  0  0  0
  147.5840  153.7120  132.9610 N   0  0  0  0  0  0  0  0  0  0  0  0
  148.0040  152.4750  132.3280 C   0  0  0  0  0  0  0  0  0  0  0  0
  149.1960  151.8450  133.0400 C   0  0  0  0  0  0  0  0  0  0  0  0
  150.3760  152.0580  132.3460 O   0  0  0  0  0  0  0  0  0  0  0  0
  149.8370  156.9690  133.0390 H   0  0  0  0  0  0  0  0  0  0  0  0
  149.4370  157.0740  131.2430 H   0  0  0  0  0  0  0  0  0  0  0  0
  147.3445  161.1339  132.7199 H   0  0  0  0  0  0  0  0  0  0  0  0
  144.7678  161.9592  133.4963 H   0  0  0  0  0  0  0  0  0  0  0  0
  142.5577  161.1629  134.3227 H   0  0  0  0  0  0  0  0  0  0  0  0
  141.9848  157.6581  135.2805 H   0  0  0  0  0  0  0  0  0  0  0  0
  141.5199  159.3882  135.5632 H   0  0  0  0  0  0  0  0  0  0  0  0
  144.0709  157.1321  134.2542 H   0  0  0  0  0  0  0  0  0  0  0  0
  146.6150  153.8020  133.3920 H   0  0  0  0  0  0  0  0  0  0  0  0
  147.1643  151.7646  132.3447 H   0  0  0  0  0  0  0  0  0  0  0  0
  148.3082  152.7073  131.2968 H   0  0  0  0  0  0  0  0  0  0  0  0
  149.2871  152.2872  134.0431 H   0  0  0  0  0  0  0  0  0  0  0  0
  149.0250  150.7602  133.1027 H   0  0  0  0  0  0  0  0  0  0  0  0
  150.3640  152.9110  131.8570 H   0  0  0  0  0  0  0  0  0  0  0  0
  1  2  1  0
  2  3  2  0
  2  4  1  0
  4  5  2  0
  5  6  1  0
  6  7  2  0
  7  8  1  0
  8  9  2  0
  9 10  1  0
 10 11  1  0
  9 12  1  0
 12 13  2  0
 13 14  1  0
 14 15  1  0
 15 16  2  0
 15 17  1  0
 17 18  1  0
 18 19  2  0
 18 20  1  0
 20 21  1  0
 21 22  1  0
 22 23  1  0
 14  4  1  0
 13  6  1  0
  1 24  1  0
  1 25  1  0
  5 26  1  0
  7 27  1  0
  8 28  1  0
 10 29  1  0
 10 30  1  0
 12 31  1  0
 20 32  1  0
 21 33  1  0
 21 34  1  0
 22 35  1  0
 22 36  1  0
 23 37  1  0
M  END
>  <smiles>  (63) 
NC(=O)c1cc2ccc(CCl)cc2n1C(=O)OC(=O)NCCO

>  <score_type>  (63) 
oracle

>  <origin>  (63) 
adg

>  <m_score__min__energy>  (63) 
-7.25

>  <m_primary>  (63) 
energy

$$$$
68:0
     RDKit          3D

 52 53  0  0  0  0  0  0  0  0999 V2000
  138.2860  160.1180  130.3640 C   0  0  0  0  0  0  0  0  0  0  0  0
  138.7360  159.0160  131.2820 C   0  0  0  0  0  0  0  0  0  0  0  0
  139.1270  159.4950  132.5670 O   0  0  0  0  0  0  0  0  0  0  0  0
  140.4930  159.6420  132.8850 C   0  0  0  0  0  0  0  0  0  0  0  0
  140.8760  160.8470  133.0000 O   0  0  0  0  0  0  0  0  0  0  0  0
  141.3900  158.4820  133.0680 C   0  0  0  0  0  0  0  0  0  0  0  0
  142.2880  158.5680  134.2730 C   0  0  0  0  0  0  0  0  0  0  0  0
  143.6050  159.1000  133.9440 C   0  0  0  0  0  0  0  0  0  0  0  0
  143.8170  160.4570  134.0650 C   0  0  0  0  0  0  0  0  0  0  0  0
  145.0570  160.9660  133.7580 C   0  0  0  0  0  0  0  0  0  0  0  0
  146.0540  160.1070  133.3400 C   0  0  0  0  0  0  0  0  0  0  0  0
  147.3390  160.3900  132.9920 C   0  0  0  0  0  0  0  0  0  0  0  0
  147.9090  159.1760  132.6540 C   0  0  0  0  0  0  0  0  0  0  0  0
  149.2910  159.1650  132.1240 C   0  0  0  0  0  0  0  0  0  0  0  0
  149.9630  157.9240  131.8600 N   0  0  0  0  0  0  0  0  0  0  0  0
  149.9250  160.2080  131.8720 O   0  0  0  0  0  0  0  0  0  0  0  0
  147.0660  158.1560  132.7750 N   0  0  0  0  0  0  0  0  0  0  0  0
  147.1830  156.7710  132.7900 C   0  0  0  0  0  0  0  0  0  0  0  0
  147.3550  156.2340  131.5950 O   0  0  0  0  0  0  0  0  0  0  0  0
  147.1520  155.7710  133.7710 N   0  0  0  0  0  0  0  0  0  0  0  0
  147.3470  156.3460  135.1550 C   0  0  0  0  0  0  0  0  0  0  0  0
  147.0340  154.3750  133.7160 C   0  0  0  0  0  0  0  0  0  0  0  0
  148.3130  153.5700  133.6740 C   0  0  0  0  0  0  0  0  0  0  0  0
  149.0830  153.7500  132.4220 C   0  0  0  0  0  0  0  0  0  0  0  0
  149.6400  155.0020  132.3350 O   0  0  0  0  0  0  0  0  0  0  0  0
  145.8920  158.7580  133.2040 C   0  0  0  0  0  0  0  0  0  0  0  0
  144.6360  158.2550  133.5160 C   0  0  0  0  0  0  0  0  0  0  0  0
  137.9368  160.9731  130.9613 H   0  0  0  0  0  0  0  0  0  0  0  0
  139.1274  160.4332  129.7295 H   0  0  0  0  0  0  0  0  0  0  0  0
  137.4645  159.7541  129.7295 H   0  0  0  0  0  0  0  0  0  0  0  0
  137.9075  158.3037  131.4092 H   0  0  0  0  0  0  0  0  0  0  0  0
  139.6152  158.5400  130.8234 H   0  0  0  0  0  0  0  0  0  0  0  0
  140.7684  157.5799  133.1671 H   0  0  0  0  0  0  0  0  0  0  0  0
  142.0502  158.4567  132.1885 H   0  0  0  0  0  0  0  0  0  0  0  0
  141.8172  159.2251  135.0190 H   0  0  0  0  0  0  0  0  0  0  0  0
  142.4245  157.5492  134.6647 H   0  0  0  0  0  0  0  0  0  0  0  0
  143.0076  161.1215  134.4016 H   0  0  0  0  0  0  0  0  0  0  0  0
  145.2524  162.0451  133.8444 H   0  0  0  0  0  0  0  0  0  0  0  0
  147.8230  161.3777  132.9817 H   0  0  0  0  0  0  0  0  0  0  0  0
  149.3900  157.0490  131.6870 H   0  0  0  0  0  0  0  0  0  0  0  0
  150.9970  157.8450  131.8310 H   0  0  0  0  0  0  0  0  0  0  0  0
  147.0893  155.5861  135.9074 H   0  0  0  0  0  0  0  0  0  0  0  0
  148.3974  156.6467  135.2825 H   0  0  0  0  0  0  0  0  0  0  0  0
  146.6963  157.2237  135.2825 H   0  0  0  0  0  0  0  0  0  0  0  0
  146.4724  154.0560  134.6064 H   0  0  0  0  0  0  0  0  0  0  0  0
  146.5419  154.1719  132.7534 H   0  0  0  0  0  0  0  0  0  0  0  0
  148.9460  153.8776  134.5194 H   0  0  0  0  0  0  0  0  0  0  0  0
  148.0295  152.5087  133.7299 H   0  0  0  0  0  0  0  0  0  0  0  0
  149.8875  153.0005  132.3892 H   0  0  0  0  0  0  0  0  0  0  0  0
  148.3897  153.6276  131.5768 H   0  0  0  0  0  0  0  0  0  0  0  0
  149.0280  155.5910  131.8530 H   0  0  0  0  0  0  0  0  0  0  0  0
  144.4479  157.1750  133.4254 H   0  0  0  0  0  0  0  0  0  0  0  0
  1  2  1  0
  2  3  1  0
  3  4  1  0
  4  5  2  0
  4  6  1  0
  6  7  1  0
  7  8  1  0
  8  9  2  0
  9 10  1  0
 10 11  2  0
 11 12  1  0
 12 13  2  0
 13 14  1  0
 14 15  1  0
 14 16  2  0
 13 17  1  0
 17 18  1  0
 18 19  2  0
 18 20  1  0
 20 21  1  0
 20 22  1  0
 22 23  1  0
 23 24  1  0
 24 25  1  0
 17 26  1  0
 26 27  2  0
 27  8  1  0
 26 11  1  0
  1 28  1  0
  1 29  1  0
  1 30  1  0
  2 31  1  0
  2 32  1  0
  6 33  1  0
  6 34  1  0
  7 35  1  0
  7 36  1  0
  9 37  1  0
 10 38  1  0
 12 39  1  0
 15 40  1  0
 15 41  1  0
 21 42  1  0
 21 43  1  0
 21 44  1  0
 22 45  1  0
 22 46  1  0
 23 47  1  0
 23 48  1  0
 24 49  1  0
 24 50  1  0
 25 51  1  0
 27 52  1  0
M  END
>  <smiles>  (64) 
CCOC(=O)CCc1ccc2cc(C(N)=O)n(C(=O)N(C)CCCO)c2c1

>  <score_type>  (64) 
oracle

>  <origin>  (64) 
adg

>  <m_score__min__energy>  (64) 
-7.1100000000000003

>  <m_primary>  (64) 
energy

$$$$
69:0
     RDKit          3D

 54 56  0  0  1  0  0  0  0  0999 V2000
  141.4940  154.5100  133.4380 C   0  0  0  0  0  0  0  0  0  0  0  0
  142.9290  154.6490  133.4120 N   0  0  0  0  0  0  0  0  0  0  0  0
  143.5290  153.9260  132.2220 C   0  0  0  0  0  0  0  0  0  0  0  0
  144.5870  153.0380  132.6940 C   0  0  0  0  0  0  0  0  0  0  0  0
  144.3890  152.2760  133.6770 O   0  0  0  0  0  0  0  0  0  0  0  0
  145.8050  153.0360  132.0570 O   0  0  0  0  0  0  0  0  0  0  0  0
  143.8290  155.2720  134.2060 C   0  0  0  0  0  0  0  0  0  0  0  0
  143.3230  155.7070  135.3680 O   0  0  0  0  0  0  0  0  0  0  0  0
  145.2350  155.6390  134.2120 N   0  0  0  0  0  0  0  0  0  0  0  0
  145.8450  155.1420  135.4440 C   0  0  0  0  0  0  0  0  0  0  0  0
  146.4550  153.8370  135.5320 C   0  0  2  0  0  0  0  0  0  0  0  0
  147.1790  153.3910  136.5650 O   0  0  0  0  0  0  0  0  0  0  0  0
  147.0490  153.3390  134.3480 O   0  0  0  0  0  0  0  0  0  0  0  0
  145.8050  156.5030  133.2710 C   0  0  0  0  0  0  0  0  0  0  0  0
  146.3890  155.8900  132.2930 O   0  0  0  0  0  0  0  0  0  0  0  0
  145.8670  157.9040  133.1350 N   0  0  0  0  0  0  0  0  0  0  0  0
  146.7940  158.8320  133.0800 C   0  0  0  0  0  0  0  0  0  0  0  0
  148.1810  158.6720  132.5850 C   0  0  0  0  0  0  0  0  0  0  0  0
  148.2910  157.7030  131.5130 N   0  0  0  0  0  0  0  0  0  0  0  0
  149.1500  159.3080  133.0330 O   0  0  0  0  0  0  0  0  0  0  0  0
  146.3170  160.1160  133.2880 C   0  0  0  0  0  0  0  0  0  0  0  0
  144.9760  159.9690  133.4780 C   0  0  0  0  0  0  0  0  0  0  0  0
  144.0250  160.9420  133.7250 C   0  0  0  0  0  0  0  0  0  0  0  0
  142.7130  160.5730  133.8900 C   0  0  0  0  0  0  0  0  0  0  0  0
  142.4050  159.2370  133.8020 C   0  0  0  0  0  0  0  0  0  0  0  0
  140.9850  158.8510  133.9830 C   0  0  0  0  0  0  0  0  0  0  0  0
  140.1620  159.2630  132.8610 N   0  0  0  0  0  0  0  0  0  0  0  0
  139.5530  158.3740  132.0210 C   0  0  0  0  0  0  0  0  0  0  0  0
  138.8540  159.0890  131.0700 C   0  0  0  0  0  0  0  0  0  0  0  0
  139.0590  160.4220  131.3600 C   0  0  0  0  0  0  0  0  0  0  0  0
  139.8530  160.4810  132.4450 N   0  0  0  0  0  0  0  0  0  0  0  0
  143.3810  158.2630  133.5520 C   0  0  0  0  0  0  0  0  0  0  0  0
  144.6990  158.6330  133.3860 C   0  0  0  0  0  0  0  0  0  0  0  0
  141.1477  154.4765  134.4815 H   0  0  0  0  0  0  0  0  0  0  0  0
  141.0332  155.3677  132.9262 H   0  0  0  0  0  0  0  0  0  0  0  0
  141.2064  153.5798  132.9262 H   0  0  0  0  0  0  0  0  0  0  0  0
  142.7499  153.3364  131.7166 H   0  0  0  0  0  0  0  0  0  0  0  0
  143.9440  154.6565  131.5120 H   0  0  0  0  0  0  0  0  0  0  0  0
  146.5190  153.7230  132.2410 H   0  0  0  0  0  0  0  0  0  0  0  0
  146.6297  155.8653  135.7106 H   0  0  0  0  0  0  0  0  0  0  0  0
  144.9700  155.0283  136.1008 H   0  0  0  0  0  0  0  0  0  0  0  0
  145.4591  153.4318  135.7643 H   0  0  0  0  0  0  0  0  0  0  0  0
  146.5280  152.5870  133.9700 H   0  0  0  0  0  0  0  0  0  0  0  0
  147.6870  156.8530  131.4810 H   0  0  0  0  0  0  0  0  0  0  0  0
  148.9920  157.8440  130.7390 H   0  0  0  0  0  0  0  0  0  0  0  0
  146.8957  161.0515  133.2976 H   0  0  0  0  0  0  0  0  0  0  0  0
  144.3167  162.0007  133.7886 H   0  0  0  0  0  0  0  0  0  0  0  0
  141.9330  161.3233  134.0865 H   0  0  0  0  0  0  0  0  0  0  0  0
  140.9246  157.7574  134.0850 H   0  0  0  0  0  0  0  0  0  0  0  0
  140.6079  159.3563  134.8844 H   0  0  0  0  0  0  0  0  0  0  0  0
  139.6100  157.2777  132.0908 H   0  0  0  0  0  0  0  0  0  0  0  0
  138.2532  158.6781  130.2453 H   0  0  0  0  0  0  0  0  0  0  0  0
  138.6488  161.2793  130.8061 H   0  0  0  0  0  0  0  0  0  0  0  0
  143.0956  157.2026  133.4881 H   0  0  0  0  0  0  0  0  0  0  0  0
  1  2  1  0
  2  3  1  0
  3  4  1  0
  4  5  2  0
  4  6  1  0
  2  7  1  0
  7  8  2  0
  7  9  1  0
  9 10  1  0
 10 11  1  0
 11 12  1  0
 11 13  1  0
  9 14  1  0
 14 15  2  0
 14 16  1  0
 16 17  1  0
 17 18  1  0
 18 19  1  0
 18 20  2  0
 17 21  2  0
 21 22  1  0
 22 23  2  0
 23 24  1  0
 24 25  2  0
 25 26  1  0
 26 27  1  0
 27 28  1  0
 28 29  2  0
 29 30  1  0
 30 31  2  0
 25 32  1  0
 32 33  2  0
 33 16  1  0
 33 22  1  0
 31 27  1  0
  1 34  1  0
  1 35  1  0
  1 36  1  0
  3 37  1  0
  3 38  1  0
  6 39  1  0
 10 40  1  0
 10 41  1  0
 11 42  1  1
 13 43  1  0
 19 44  1  0
 19 45  1  0
 21 46  1  0
 23 47  1  0
 24 48  1  0
 26 49  1  0
 26 50  1  0
 28 51  1  0
 29 52  1  0
 30 53  1  0
 32 54  1  0
M  CHG  1  12  -1
M  END
>  <smiles>  (65) 
CN(CC(=O)O)C(=O)N(CC([O-])O)C(=O)n1c(C(N)=O)cc2ccc(Cn3cccn3)cc21

>  <score_type>  (65) 
oracle

>  <origin>  (65) 
adg

>  <m_score__min__energy>  (65) 
-7.6500000000000004

>  <m_primary>  (65) 
energy

$$$$
70:0
     RDKit          3D

 46 48  0  0  1  0  0  0  0  0999 V2000
  139.6970  147.2240  130.3970 C   0  0  0  0  0  0  0  0  0  0  0  0
  139.0620  148.8550  130.7070 S   0  0  0  0  0  0  0  0  0  0  0  0
  138.3420  149.4670  129.3180 O   0  0  0  0  0  0  0  0  0  0  0  0
  140.4150  149.8960  131.1300 C   0  0  0  0  0  0  0  0  0  0  0  0
  140.3920  150.3200  132.4650 O   0  0  0  0  0  0  0  0  0  0  0  0
  141.1930  151.4060  132.8170 C   0  0  0  0  0  0  0  0  0  0  0  0
  140.6940  152.6640  133.0610 C   0  0  0  0  0  0  0  0  0  0  0  0
  141.5340  153.7250  133.4110 C   0  0  0  0  0  0  0  0  0  0  0  0
  142.8830  153.4540  133.5010 C   0  0  0  0  0  0  0  0  0  0  0  0
  143.8370  154.4850  133.8580 N   0  0  0  0  0  0  0  0  0  0  0  0
  144.8590  154.7320  132.9360 C   0  0  0  0  0  0  0  0  0  0  0  0
  144.7950  153.9920  131.8980 O   0  0  0  0  0  0  0  0  0  0  0  0
  145.9140  155.6530  132.9950 N   0  0  0  0  0  0  0  0  0  0  0  0
  147.2090  155.3070  132.8500 C   0  0  0  0  0  0  0  0  0  0  0  0
  147.8820  154.0420  132.6480 C   0  0  0  0  0  0  0  0  0  0  0  0
  147.1010  152.8070  132.6220 N   0  0  0  0  0  0  0  0  0  0  0  0
  149.0980  153.8370  132.4850 O   0  0  0  0  0  0  0  0  0  0  0  0
  147.9700  156.4930  132.9480 C   0  0  0  0  0  0  0  0  0  0  0  0
  147.1270  157.5440  133.1520 C   0  0  0  0  0  0  0  0  0  0  0  0
  147.3990  158.8850  133.3060 C   0  0  0  0  0  0  0  0  0  0  0  0
  146.3750  159.7810  133.5010 C   0  0  0  0  0  0  0  0  0  0  0  0
  145.0950  159.2820  133.5330 C   0  0  0  0  0  0  0  0  0  0  0  0
  143.9530  160.2260  133.7420 C   0  0  0  0  0  0  0  0  0  0  0  0
  144.3000  161.5140  133.3830 F   0  0  0  0  0  0  0  0  0  0  0  0
  142.9210  159.7530  132.9640 F   0  0  0  0  0  0  0  0  0  0  0  0
  143.5790  160.1170  135.0620 F   0  0  0  0  0  0  0  0  0  0  0  0
  144.8380  157.9150  133.3740 C   0  0  0  0  0  0  0  0  0  0  0  0
  145.8560  157.0080  133.1790 C   0  0  0  0  0  0  0  0  0  0  0  0
  143.4000  152.1990  133.2600 C   0  0  0  0  0  0  0  0  0  0  0  0
  142.5640  151.1460  132.9120 C   0  0  0  0  0  0  0  0  0  0  0  0
  143.0580  149.9040  132.6710 F   0  0  0  0  0  0  0  0  0  0  0  0
  139.8936  146.7190  131.3543 H   0  0  0  0  0  0  0  0  0  0  0  0
  138.9582  146.6460  129.8225 H   0  0  0  0  0  0  0  0  0  0  0  0
  140.6321  147.2977  129.8225 H   0  0  0  0  0  0  0  0  0  0  0  0
  141.3493  149.3423  130.9556 H   0  0  0  0  0  0  0  0  0  0  0  0
  140.3427  150.7957  130.5012 H   0  0  0  0  0  0  0  0  0  0  0  0
  139.6111  152.8390  132.9790 H   0  0  0  0  0  0  0  0  0  0  0  0
  141.1364  154.7319  133.6060 H   0  0  0  0  0  0  0  0  0  0  0  0
  143.7190  154.9460  134.7200 H   0  0  0  0  0  0  0  0  0  0  0  0
  147.1040  152.2010  133.4680 H   0  0  0  0  0  0  0  0  0  0  0  0
  146.5740  152.5940  131.7470 H   0  0  0  0  0  0  0  0  0  0  0  0
  149.0655  156.5577  132.8720 H   0  0  0  0  0  0  0  0  0  0  0  0
  148.4394  159.2405  133.2729 H   0  0  0  0  0  0  0  0  0  0  0  0
  146.5725  160.8558  133.6266 H   0  0  0  0  0  0  0  0  0  0  0  0
  143.7984  157.5568  133.4055 H   0  0  0  0  0  0  0  0  0  0  0  0
  144.4837  152.0302  133.3440 H   0  0  0  0  0  0  0  0  0  0  0  0
  1  2  1  0
  2  3  1  6
  2  4  1  0
  4  5  1  0
  5  6  1  0
  6  7  2  0
  7  8  1  0
  8  9  2  0
  9 10  1  0
 10 11  1  0
 11 12  2  0
 11 13  1  0
 13 14  1  0
 14 15  1  0
 15 16  1  0
 15 17  2  0
 14 18  2  0
 18 19  1  0
 19 20  2  0
 20 21  1  0
 21 22  2  0
 22 23  1  0
 23 24  1  0
 23 25  1  0
 23 26  1  0
 22 27  1  0
 27 28  2  0
  9 29  1  0
 29 30  2  0
 30 31  1  0
 30  6  1  0
 28 13  1  0
 28 19  1  0
  1 32  1  0
  1 33  1  0
  1 34  1  0
  4 35  1  0
  4 36  1  0
  7 37  1  0
  8 38  1  0
 10 39  1  0
 16 40  1  0
 16 41  1  0
 18 42  1  0
 20 43  1  0
 21 44  1  0
 27 45  1  0
 29 46  1  0
M  CHG  2   2   1   3  -1
M  END
>  <smiles>  (66) 
C[S+]([O-])COc1ccc(NC(=O)n2c(C(N)=O)cc3ccc(C(F)(F)F)cc32)cc1F

>  <score_type>  (66) 
oracle

>  <origin>  (66) 
adg

>  <m_score__min__energy>  (66) 
-8.3499999999999996

>  <m_primary>  (66) 
energy

$$$$
71:0
     RDKit          3D

 47 48  0  0  0  0  0  0  0  0999 V2000
  147.7440  153.7200  134.7160 C   0  0  0  0  0  0  0  0  0  0  0  0
  147.2300  153.1030  133.5190 N   0  0  0  0  0  0  0  0  0  0  0  0
  148.2400  152.4550  132.6650 C   0  0  0  0  0  0  0  0  0  0  0  0
  149.4090  153.3460  132.3740 C   0  0  0  0  0  0  0  0  0  0  0  0
  149.0150  154.6750  132.2300 O   0  0  0  0  0  0  0  0  0  0  0  0
  145.9120  153.0500  133.0790 C   0  0  0  0  0  0  0  0  0  0  0  0
  145.5340  151.9830  132.4400 O   0  0  0  0  0  0  0  0  0  0  0  0
  144.8150  154.0470  133.2210 C   0  0  0  0  0  0  0  0  0  0  0  0
  145.1640  155.3550  133.5820 N   0  0  0  0  0  0  0  0  0  0  0  0
  144.5710  155.7750  134.9220 C   0  0  0  0  0  0  0  0  0  0  0  0
  145.9060  156.3710  132.9740 C   0  0  0  0  0  0  0  0  0  0  0  0
  146.7050  155.9030  132.0290 O   0  0  0  0  0  0  0  0  0  0  0  0
  145.9910  157.7520  133.1220 N   0  0  0  0  0  0  0  0  0  0  0  0
  146.9680  158.6170  133.3770 C   0  0  0  0  0  0  0  0  0  0  0  0
  148.4260  158.4650  133.1550 C   0  0  0  0  0  0  0  0  0  0  0  0
  148.9600  157.2470  132.5970 N   0  0  0  0  0  0  0  0  0  0  0  0
  149.2350  159.3570  133.4210 O   0  0  0  0  0  0  0  0  0  0  0  0
  146.4940  159.8830  133.7020 C   0  0  0  0  0  0  0  0  0  0  0  0
  145.1390  159.7910  133.6360 C   0  0  0  0  0  0  0  0  0  0  0  0
  144.1890  160.7730  133.8700 C   0  0  0  0  0  0  0  0  0  0  0  0
  142.8520  160.4700  133.7510 C   0  0  0  0  0  0  0  0  0  0  0  0
  142.5150  159.1850  133.3980 C   0  0  0  0  0  0  0  0  0  0  0  0
  141.0700  158.8550  133.2680 C   0  0  0  0  0  0  0  0  0  0  0  0
  140.3730  159.2870  134.4070 F   0  0  0  0  0  0  0  0  0  0  0  0
  140.9410  157.4820  133.2710 F   0  0  0  0  0  0  0  0  0  0  0  0
  140.4670  159.4740  132.2100 F   0  0  0  0  0  0  0  0  0  0  0  0
  143.4910  158.2060  133.1650 C   0  0  0  0  0  0  0  0  0  0  0  0
  144.8390  158.5070  133.2840 C   0  0  0  0  0  0  0  0  0  0  0  0
  147.3235  153.2152  135.5983 H   0  0  0  0  0  0  0  0  0  0  0  0
  148.8404  153.6329  134.7316 H   0  0  0  0  0  0  0  0  0  0  0  0
  147.4603  154.7827  134.7316 H   0  0  0  0  0  0  0  0  0  0  0  0
  148.6048  151.5513  133.1752 H   0  0  0  0  0  0  0  0  0  0  0  0
  147.7588  152.2143  131.7056 H   0  0  0  0  0  0  0  0  0  0  0  0
  150.1282  153.2743  133.2032 H   0  0  0  0  0  0  0  0  0  0  0  0
  149.8665  153.0174  131.4292 H   0  0  0  0  0  0  0  0  0  0  0  0
  148.2740  154.7870  131.5940 H   0  0  0  0  0  0  0  0  0  0  0  0
  144.2939  154.1015  132.2538 H   0  0  0  0  0  0  0  0  0  0  0  0
  144.2127  153.6781  134.0643 H   0  0  0  0  0  0  0  0  0  0  0  0
  145.1723  155.3491  135.7387 H   0  0  0  0  0  0  0  0  0  0  0  0
  144.5755  156.8724  134.9971 H   0  0  0  0  0  0  0  0  0  0  0  0
  143.5373  155.4065  134.9971 H   0  0  0  0  0  0  0  0  0  0  0  0
  148.3500  156.6980  131.9260 H   0  0  0  0  0  0  0  0  0  0  0  0
  149.9220  156.9340  132.8580 H   0  0  0  0  0  0  0  0  0  0  0  0
  147.0895  160.7716  133.9584 H   0  0  0  0  0  0  0  0  0  0  0  0
  144.5024  161.7897  134.1495 H   0  0  0  0  0  0  0  0  0  0  0  0
  142.0786  161.2309  133.9324 H   0  0  0  0  0  0  0  0  0  0  0  0
  143.1838  157.1876  132.8846 H   0  0  0  0  0  0  0  0  0  0  0  0
  1  2  1  0
  2  3  1  0
  3  4  1  0
  4  5  1  0
  2  6  1  0
  6  7  2  0
  6  8  1  0
  8  9  1  0
  9 10  1  0
  9 11  1  0
 11 12  2  0
 11 13  1  0
 13 14  1  0
 14 15  1  0
 15 16  1  0
 15 17  2  0
 14 18  2  0
 18 19  1  0
 19 20  2  0
 20 21  1  0
 21 22  2  0
 22 23  1  0
 23 24  1  0
 23 25  1  0
 23 26  1  0
 22 27  1  0
 27 28  2  0
 28 13  1  0
 28 19  1  0
  1 29  1  0
  1 30  1  0
  1 31  1  0
  3 32  1  0
  3 33  1  0
  4 34  1  0
  4 35  1  0
  5 36  1  0
  8 37  1  0
  8 38  1  0
 10 39  1  0
 10 40  1  0
 10 41  1  0
 16 42  1  0
 16 43  1  0
 18 44  1  0
 20 45  1  0
 21 46  1  0
 27 47  1  0
M  END
>  <smiles>  (67) 
CN(CCO)C(=O)CN(C)C(=O)n1c(C(N)=O)cc2ccc(C(F)(F)F)cc21

>  <score_type>  (67) 
oracle

>  <origin>  (67) 
adg

>  <m_score__min__energy>  (67) 
-6.1699999999999999

>  <m_primary>  (67) 
energy

$$$$
72:0
     RDKit          3D

 44 47  0  0  0  0  0  0  0  0999 V2000
  147.3520  160.8600  132.8120 N   0  0  0  0  0  0  0  0  0  0  0  0
  147.8050  159.6880  133.4170 C   0  0  0  0  0  0  0  0  0  0  0  0
  148.8670  159.8140  134.1320 O   0  0  0  0  0  0  0  0  0  0  0  0
  147.2420  158.3660  133.3480 C   0  0  0  0  0  0  0  0  0  0  0  0
  148.0360  157.2150  133.4600 C   0  0  0  0  0  0  0  0  0  0  0  0
  147.2280  156.0970  133.3570 C   0  0  0  0  0  0  0  0  0  0  0  0
  147.5200  154.7490  133.4020 C   0  0  0  0  0  0  0  0  0  0  0  0
  146.5140  153.8150  133.2710 C   0  0  0  0  0  0  0  0  0  0  0  0
  145.2370  154.2560  133.0970 C   0  0  0  0  0  0  0  0  0  0  0  0
  144.1450  153.2760  132.9530 C   0  0  0  0  0  0  0  0  0  0  0  0
  142.8190  153.7190  133.0030 C   0  0  0  0  0  0  0  0  0  0  0  0
  141.7790  152.8000  132.8670 C   0  0  0  0  0  0  0  0  0  0  0  0
  142.0550  151.4570  132.6840 C   0  0  0  0  0  0  0  0  0  0  0  0
  140.9130  150.5620  132.5500 C   0  0  0  0  0  0  0  0  0  0  0  0
  140.7880  149.6270  133.3800 O   0  0  0  0  0  0  0  0  0  0  0  0
  139.9330  150.6880  131.5300 N   0  0  0  0  0  0  0  0  0  0  0  0
  138.8070  149.7820  131.4190 C   0  0  0  0  0  0  0  0  0  0  0  0
  138.4270  149.2030  130.1070 C   0  0  0  0  0  0  0  0  0  0  0  0
  139.1390  148.3210  131.0880 C   0  0  0  0  0  0  0  0  0  0  0  0
  143.3600  151.0240  132.6340 C   0  0  0  0  0  0  0  0  0  0  0  0
  144.4190  151.9290  132.7680 C   0  0  0  0  0  0  0  0  0  0  0  0
  144.9530  155.6270  133.0510 C   0  0  0  0  0  0  0  0  0  0  0  0
  145.9610  156.5710  133.1830 C   0  0  0  0  0  0  0  0  0  0  0  0
  145.9780  157.9390  133.1790 N   0  0  0  0  0  0  0  0  0  0  0  0
  144.8220  158.7430  133.0200 C   0  0  0  0  0  0  0  0  0  0  0  0
  143.6990  158.3510  132.6610 O   0  0  0  0  0  0  0  0  0  0  0  0
  144.9050  160.1280  133.2810 O   0  0  0  0  0  0  0  0  0  0  0  0
  147.7190  161.0830  131.8450 H   0  0  0  0  0  0  0  0  0  0  0  0
  146.6710  161.5000  133.3080 H   0  0  0  0  0  0  0  0  0  0  0  0
  149.1262  157.2034  133.6063 H   0  0  0  0  0  0  0  0  0  0  0  0
  148.5596  154.4182  133.5429 H   0  0  0  0  0  0  0  0  0  0  0  0
  146.7376  152.7385  133.3062 H   0  0  0  0  0  0  0  0  0  0  0  0
  142.5979  154.7866  133.1488 H   0  0  0  0  0  0  0  0  0  0  0  0
  140.7350  153.1445  132.9054 H   0  0  0  0  0  0  0  0  0  0  0  0
  140.0140  151.4550  130.8290 H   0  0  0  0  0  0  0  0  0  0  0  0
  138.2483  150.3258  132.1949 H   0  0  0  0  0  0  0  0  0  0  0  0
  137.3666  149.0194  129.8793 H   0  0  0  0  0  0  0  0  0  0  0  0
  138.6099  149.4897  129.0609 H   0  0  0  0  0  0  0  0  0  0  0  0
  138.6010  147.5032  131.5898 H   0  0  0  0  0  0  0  0  0  0  0  0
  140.0506  147.7055  131.0745 H   0  0  0  0  0  0  0  0  0  0  0  0
  143.5732  149.9549  132.4871 H   0  0  0  0  0  0  0  0  0  0  0  0
  145.4597  151.5751  132.7270 H   0  0  0  0  0  0  0  0  0  0  0  0
  143.9145  155.9603  132.9080 H   0  0  0  0  0  0  0  0  0  0  0  0
  145.1770  160.7610  132.5340 H   0  0  0  0  0  0  0  0  0  0  0  0
  1  2  1  0
  2  3  2  0
  2  4  1  0
  4  5  2  0
  5  6  1  0
  6  7  2  0
  7  8  1  0
  8  9  2  0
  9 10  1  0
 10 11  2  0
 11 12  1  0
 12 13  2  0
 13 14  1  0
 14 15  2  0
 14 16  1  0
 16 17  1  0
 17 18  1  0
 18 19  1  0
 13 20  1  0
 20 21  2  0
  9 22  1  0
 22 23  2  0
 23 24  1  0
 24 25  1  0
 25 26  2  0
 25 27  1  0
 24  4  1  0
 23  6  1  0
 21 10  1  0
 19 17  1  0
  1 28  1  0
  1 29  1  0
  5 30  1  0
  7 31  1  0
  8 32  1  0
 11 33  1  0
 12 34  1  0
 16 35  1  0
 17 36  1  0
 18 37  1  0
 18 38  1  0
 19 39  1  0
 19 40  1  0
 20 41  1  0
 21 42  1  0
 22 43  1  0
 27 44  1  0
M  END
>  <smiles>  (68) 
NC(=O)c1cc2ccc(-c3ccc(C(=O)NC4CC4)cc3)cc2n1C(=O)O

>  <score_type>  (68) 
oracle

>  <origin>  (68) 
adg

>  <m_score__min__energy>  (68) 
-9.6300000000000008

>  <m_primary>  (68) 
energy

$$$$
74:0
     RDKit          3D

 59 60  0  0  0  0  0  0  0  0999 V2000
  141.6660  160.8010  133.5920 C   0  0  0  0  0  0  0  0  0  0  0  0
  142.6880  159.9640  134.2390 N   0  0  0  0  0  0  0  0  0  0  0  0
  142.5110  159.4250  135.5470 C   0  0  0  0  0  0  0  0  0  0  0  0
  141.6650  158.1920  135.5920 C   0  0  0  0  0  0  0  0  0  0  0  0
  140.9890  157.8830  134.2880 C   0  0  0  0  0  0  0  0  0  0  0  0
  141.3840  156.4830  133.8910 C   0  0  0  0  0  0  0  0  0  0  0  0
  140.4150  155.5300  133.6770 C   0  0  0  0  0  0  0  0  0  0  0  0
  140.7930  154.2580  133.3150 C   0  0  0  0  0  0  0  0  0  0  0  0
  142.1390  153.9660  133.1760 C   0  0  0  0  0  0  0  0  0  0  0  0
  142.7390  152.8060  132.8330 C   0  0  0  0  0  0  0  0  0  0  0  0
  144.1220  153.0280  132.8320 C   0  0  0  0  0  0  0  0  0  0  0  0
  145.0280  151.9330  132.5340 C   0  0  0  0  0  0  0  0  0  0  0  0
  146.4590  152.1830  132.5620 N   0  0  0  0  0  0  0  0  0  0  0  0
  144.7260  150.7600  132.2460 O   0  0  0  0  0  0  0  0  0  0  0  0
  144.3660  154.3020  133.1620 N   0  0  0  0  0  0  0  0  0  0  0  0
  145.5360  155.0770  133.1720 C   0  0  0  0  0  0  0  0  0  0  0  0
  146.6440  154.5210  133.5230 O   0  0  0  0  0  0  0  0  0  0  0  0
  145.6830  156.4400  132.8480 N   0  0  0  0  0  0  0  0  0  0  0  0
  147.0380  156.9900  132.9310 C   0  0  0  0  0  0  0  0  0  0  0  0
  147.0700  158.4550  132.9730 C   0  0  0  0  0  0  0  0  0  0  0  0
  146.8630  159.0290  134.0860 O   0  0  0  0  0  0  0  0  0  0  0  0
  147.3110  159.2600  131.8700 O   0  0  0  0  0  0  0  0  0  0  0  0
  148.5970  159.6710  131.4490 C   0  0  0  0  0  0  0  0  0  0  0  0
  148.5620  161.1760  131.2920 C   0  0  0  0  0  0  0  0  0  0  0  0
  149.5510  159.3090  132.5600 C   0  0  0  0  0  0  0  0  0  0  0  0
  149.0230  159.0720  130.1400 C   0  0  0  0  0  0  0  0  0  0  0  0
  143.1410  154.8840  133.3790 C   0  0  0  0  0  0  0  0  0  0  0  0
  142.7370  156.1570  133.7420 C   0  0  0  0  0  0  0  0  0  0  0  0
  143.8670  159.7410  133.4370 C   0  0  0  0  0  0  0  0  0  0  0  0
  143.9640  158.6640  132.8140 O   0  0  0  0  0  0  0  0  0  0  0  0
  144.8820  160.6600  133.3320 O   0  0  0  0  0  0  0  0  0  0  0  0
  141.0583  161.2987  134.3621 H   0  0  0  0  0  0  0  0  0  0  0  0
  142.1568  161.5600  132.9650 H   0  0  0  0  0  0  0  0  0  0  0  0
  141.0186  160.1703  132.9650 H   0  0  0  0  0  0  0  0  0  0  0  0
  143.5021  159.1787  135.9558 H   0  0  0  0  0  0  0  0  0  0  0  0
  141.9857  160.1909  136.1365 H   0  0  0  0  0  0  0  0  0  0  0  0
  142.3055  157.3397  135.8629 H   0  0  0  0  0  0  0  0  0  0  0  0
  140.8724  158.3698  136.3337 H   0  0  0  0  0  0  0  0  0  0  0  0
  139.8973  157.9453  134.4073 H   0  0  0  0  0  0  0  0  0  0  0  0
  141.2924  158.6042  133.5148 H   0  0  0  0  0  0  0  0  0  0  0  0
  139.3507  155.7823  133.7940 H   0  0  0  0  0  0  0  0  0  0  0  0
  140.0343  153.4815  133.1379 H   0  0  0  0  0  0  0  0  0  0  0  0
  142.2332  151.8581  132.5970 H   0  0  0  0  0  0  0  0  0  0  0  0
  147.0230  151.5860  133.2080 H   0  0  0  0  0  0  0  0  0  0  0  0
  146.8740  152.9290  131.9570 H   0  0  0  0  0  0  0  0  0  0  0  0
  144.9010  157.0400  132.6060 H   0  0  0  0  0  0  0  0  0  0  0  0
  147.5155  156.6045  133.8439 H   0  0  0  0  0  0  0  0  0  0  0  0
  147.5709  156.6795  132.0202 H   0  0  0  0  0  0  0  0  0  0  0  0
  148.5510  161.6481  132.2855 H   0  0  0  0  0  0  0  0  0  0  0  0
  149.4527  161.5077  130.7382 H   0  0  0  0  0  0  0  0  0  0  0  0
  147.6569  161.4659  130.7382 H   0  0  0  0  0  0  0  0  0  0  0  0
  149.0687  159.4920  133.5316 H   0  0  0  0  0  0  0  0  0  0  0  0
  149.8213  158.2458  132.4793 H   0  0  0  0  0  0  0  0  0  0  0  0
  150.4586  159.9252  132.4793 H   0  0  0  0  0  0  0  0  0  0  0  0
  149.6511  158.1888  130.3281 H   0  0  0  0  0  0  0  0  0  0  0  0
  148.1331  158.7736  129.5664 H   0  0  0  0  0  0  0  0  0  0  0  0
  149.5969  159.8147  129.5664 H   0  0  0  0  0  0  0  0  0  0  0  0
  143.4980  156.9316  133.9177 H   0  0  0  0  0  0  0  0  0  0  0  0
  145.7030  160.4140  132.8000 H   0  0  0  0  0  0  0  0  0  0  0  0
  1  2  1  0
  2  3  1  0
  3  4  1  0
  4  5  1  0
  5  6  1  0
  6  7  2  0
  7  8  1  0
  8  9  2  0
  9 10  1  0
 10 11  2  0
 11 12  1  0
 12 13  1  0
 12 14  2  0
 11 15  1  0
 15 16  1  0
 16 17  2  0
 16 18  1  0
 18 19  1  0
 19 20  1  0
 20 21  2  0
 20 22  1  0
 22 23  1  0
 23 24  1  0
 23 25  1  0
 23 26  1  0
 15 27  1  0
 27 28  2  0
  2 29  1  0
 29 30  2  0
 29 31  1  0
 28  6  1  0
 27  9  1  0
  1 32  1  0
  1 33  1  0
  1 34  1  0
  3 35  1  0
  3 36  1  0
  4 37  1  0
  4 38  1  0
  5 39  1  0
  5 40  1  0
  7 41  1  0
  8 42  1  0
 10 43  1  0
 13 44  1  0
 13 45  1  0
 18 46  1  0
 19 47  1  0
 19 48  1  0
 24 49  1  0
 24 50  1  0
 24 51  1  0
 25 52  1  0
 25 53  1  0
 25 54  1  0
 26 55  1  0
 26 56  1  0
 26 57  1  0
 28 58  1  0
 31 59  1  0
M  END
>  <smiles>  (69) 
CN(CCCc1ccc2cc(C(N)=O)n(C(=O)NCC(=O)OC(C)(C)C)c2c1)C(=O)O

>  <score_type>  (69) 
oracle

>  <origin>  (69) 
adg

>  <m_score__min__energy>  (69) 
-7.8600000000000003

>  <m_primary>  (69) 
energy

$$$$
75:0
     RDKit          3D

 44 45  0  0  0  0  0  0  0  0999 V2000
  141.2600  159.4010  134.3600 C   0  0  0  0  0  0  0  0  0  0  0  0
  140.5060  158.2220  134.6840 N   0  0  0  0  0  0  0  0  0  0  0  0
  140.0970  158.1700  136.0710 C   0  0  0  0  0  0  0  0  0  0  0  0
  139.3000  158.2360  133.8360 C   0  0  0  0  0  0  0  0  0  0  0  0
  139.1120  156.8420  133.3410 C   0  0  0  0  0  0  0  0  0  0  0  0
  140.3540  156.0540  133.3180 N   0  0  0  0  0  0  0  0  0  0  0  0
  140.3530  154.6870  133.0230 C   0  0  0  0  0  0  0  0  0  0  0  0
  139.1820  154.2260  132.7720 O   0  0  0  0  0  0  0  0  0  0  0  0
  141.4070  153.7690  132.9580 N   0  0  0  0  0  0  0  0  0  0  0  0
  142.7130  154.1310  133.0370 C   0  0  0  0  0  0  0  0  0  0  0  0
  143.3790  155.3890  133.2540 C   0  0  0  0  0  0  0  0  0  0  0  0
  144.3430  155.8700  132.2690 N   0  0  0  0  0  0  0  0  0  0  0  0
  143.2460  156.1760  134.2160 O   0  0  0  0  0  0  0  0  0  0  0  0
  143.4700  152.9480  132.8900 C   0  0  0  0  0  0  0  0  0  0  0  0
  142.6290  151.8900  132.7250 C   0  0  0  0  0  0  0  0  0  0  0  0
  142.9060  150.5560  132.5400 C   0  0  0  0  0  0  0  0  0  0  0  0
  141.8830  149.6540  132.3840 C   0  0  0  0  0  0  0  0  0  0  0  0
  140.5990  150.1390  132.4210 C   0  0  0  0  0  0  0  0  0  0  0  0
  139.4830  149.1910  132.2550 C   0  0  0  0  0  0  0  0  0  0  0  0
  139.4230  148.6080  130.9030 C   0  0  0  0  0  0  0  0  0  0  0  0
  140.1740  148.9780  129.9460 O   0  0  0  0  0  0  0  0  0  0  0  0
  138.5020  147.6010  130.6550 O   0  0  0  0  0  0  0  0  0  0  0  0
  140.3360  151.5000  132.6110 C   0  0  0  0  0  0  0  0  0  0  0  0
  141.3510  152.4140  132.7680 C   0  0  0  0  0  0  0  0  0  0  0  0
  141.5785  159.8990  135.2877 H   0  0  0  0  0  0  0  0  0  0  0  0
  142.1461  159.1195  133.7721 H   0  0  0  0  0  0  0  0  0  0  0  0
  140.6328  160.0873  133.7721 H   0  0  0  0  0  0  0  0  0  0  0  0
  140.9795  158.2822  136.7180 H   0  0  0  0  0  0  0  0  0  0  0  0
  139.3870  158.9851  136.2747 H   0  0  0  0  0  0  0  0  0  0  0  0
  139.6136  157.2032  136.2747 H   0  0  0  0  0  0  0  0  0  0  0  0
  138.4257  158.5511  134.4245 H   0  0  0  0  0  0  0  0  0  0  0  0
  139.4105  158.9426  133.0002 H   0  0  0  0  0  0  0  0  0  0  0  0
  138.3898  156.3342  133.9971 H   0  0  0  0  0  0  0  0  0  0  0  0
  138.7551  156.9131  132.3029 H   0  0  0  0  0  0  0  0  0  0  0  0
  141.2100  156.5540  133.5140 H   0  0  0  0  0  0  0  0  0  0  0  0
  145.1120  156.5000  132.5130 H   0  0  0  0  0  0  0  0  0  0  0  0
  144.2240  155.5410  131.2670 H   0  0  0  0  0  0  0  0  0  0  0  0
  144.5684  152.8902  132.9063 H   0  0  0  0  0  0  0  0  0  0  0  0
  143.9501  150.2106  132.5169 H   0  0  0  0  0  0  0  0  0  0  0  0
  142.0844  148.5829  132.2350 H   0  0  0  0  0  0  0  0  0  0  0  0
  139.6033  148.3759  132.9838 H   0  0  0  0  0  0  0  0  0  0  0  0
  138.5488  149.7490  132.4160 H   0  0  0  0  0  0  0  0  0  0  0  0
  137.6290  147.5590  131.2000 H   0  0  0  0  0  0  0  0  0  0  0  0
  139.2924  151.8470  132.6353 H   0  0  0  0  0  0  0  0  0  0  0  0
  1  2  1  0
  2  3  1  0
  2  4  1  0
  4  5  1  0
  5  6  1  0
  6  7  1  0
  7  8  2  0
  7  9  1  0
  9 10  1  0
 10 11  1  0
 11 12  1  0
 11 13  2  0
 10 14  2  0
 14 15  1  0
 15 16  2  0
 16 17  1  0
 17 18  2  0
 18 19  1  0
 19 20  1  0
 20 21  2  0
 20 22  1  0
 18 23  1  0
 23 24  2  0
 24  9  1  0
 24 15  1  0
  1 25  1  0
  1 26  1  0
  1 27  1  0
  3 28  1  0
  3 29  1  0
  3 30  1  0
  4 31  1  0
  4 32  1  0
  5 33  1  0
  5 34  1  0
  6 35  1  0
 12 36  1  0
 12 37  1  0
 14 38  1  0
 16 39  1  0
 17 40  1  0
 19 41  1  0
 19 42  1  0
 22 43  1  0
 23 44  1  0
M  END
>  <smiles>  (70) 
CN(C)CCNC(=O)n1c(C(N)=O)cc2ccc(CC(=O)O)cc21

>  <score_type>  (70) 
oracle

>  <origin>  (70) 
adg

>  <m_score__min__energy>  (70) 
-7.6299999999999999

>  <m_primary>  (70) 
energy

$$$$
76:0
     RDKit          3D

 45 47  0  0  0  0  0  0  0  0999 V2000
  145.7020  153.3420  133.2300 C   0  0  0  0  0  0  0  0  0  0  0  0
  146.7650  154.2980  133.2390 N   0  0  0  0  0  0  0  0  0  0  0  0
  148.0570  153.8470  133.7790 C   0  0  0  0  0  0  0  0  0  0  0  0
  149.0700  153.9090  132.6990 C   0  0  0  0  0  0  0  0  0  0  0  0
  149.5120  152.8690  132.1210 O   0  0  0  0  0  0  0  0  0  0  0  0
  149.5860  155.1330  132.2660 O   0  0  0  0  0  0  0  0  0  0  0  0
  146.6240  155.6500  132.7540 C   0  0  0  0  0  0  0  0  0  0  0  0
  146.9660  155.8020  131.5500 O   0  0  0  0  0  0  0  0  0  0  0  0
  146.1310  156.6810  133.6230 C   0  0  0  0  0  0  0  0  0  0  0  0
  145.6040  156.2620  134.7190 O   0  0  0  0  0  0  0  0  0  0  0  0
  146.1550  158.0760  133.4440 N   0  0  0  0  0  0  0  0  0  0  0  0
  147.1610  158.9420  133.2730 C   0  0  0  0  0  0  0  0  0  0  0  0
  148.5440  158.7310  132.8700 C   0  0  0  0  0  0  0  0  0  0  0  0
  149.0930  157.5560  132.3480 N   0  0  0  0  0  0  0  0  0  0  0  0
  149.3590  159.7190  132.9890 O   0  0  0  0  0  0  0  0  0  0  0  0
  146.6750  160.2640  133.3560 C   0  0  0  0  0  0  0  0  0  0  0  0
  145.3340  160.1730  133.5770 C   0  0  0  0  0  0  0  0  0  0  0  0
  144.4050  161.1840  133.7300 C   0  0  0  0  0  0  0  0  0  0  0  0
  143.0810  160.8700  133.9480 C   0  0  0  0  0  0  0  0  0  0  0  0
  142.7320  159.5380  134.0060 C   0  0  0  0  0  0  0  0  0  0  0  0
  141.3020  159.2110  134.2420 C   0  0  0  0  0  0  0  0  0  0  0  0
  141.0660  158.6040  135.5180 N   0  0  0  0  0  0  0  0  0  0  0  0
  140.7980  159.3370  136.6380 C   0  0  0  0  0  0  0  0  0  0  0  0
  140.6180  158.5130  137.6870 N   0  0  0  0  0  0  0  0  0  0  0  0
  140.7740  157.2610  137.2190 C   0  0  0  0  0  0  0  0  0  0  0  0
  140.6400  155.7900  138.1960 Cl  0  0  0  0  0  0  0  0  0  0  0  0
  141.0490  157.3090  135.8880 C   0  0  0  0  0  0  0  0  0  0  0  0
  141.3310  155.9690  134.8320 Cl  0  0  0  0  0  0  0  0  0  0  0  0
  143.6920  158.5320  133.8480 C   0  0  0  0  0  0  0  0  0  0  0  0
  145.0270  158.8370  133.6280 C   0  0  0  0  0  0  0  0  0  0  0  0
  145.4245  153.0924  134.2648 H   0  0  0  0  0  0  0  0  0  0  0  0
  144.8312  153.7668  132.7092 H   0  0  0  0  0  0  0  0  0  0  0  0
  146.0324  152.4312  132.7092 H   0  0  0  0  0  0  0  0  0  0  0  0
  148.3603  154.5018  134.6092 H   0  0  0  0  0  0  0  0  0  0  0  0
  147.9685  152.8158  134.1517 H   0  0  0  0  0  0  0  0  0  0  0  0
  149.1010  155.6270  131.5270 H   0  0  0  0  0  0  0  0  0  0  0  0
  150.0790  157.2710  132.5470 H   0  0  0  0  0  0  0  0  0  0  0  0
  148.5090  156.9410  131.7430 H   0  0  0  0  0  0  0  0  0  0  0  0
  147.2642  161.1880  133.2608 H   0  0  0  0  0  0  0  0  0  0  0  0
  144.7211  162.2363  133.6780 H   0  0  0  0  0  0  0  0  0  0  0  0
  142.3249  161.6593  134.0721 H   0  0  0  0  0  0  0  0  0  0  0  0
  140.7163  160.1403  134.1830 H   0  0  0  0  0  0  0  0  0  0  0  0
  141.0012  158.4841  133.4731 H   0  0  0  0  0  0  0  0  0  0  0  0
  140.7382  160.4347  136.6773 H   0  0  0  0  0  0  0  0  0  0  0  0
  143.3815  157.4780  133.8994 H   0  0  0  0  0  0  0  0  0  0  0  0
  1  2  1  0
  2  3  1  0
  3  4  1  0
  4  5  2  0
  4  6  1  0
  2  7  1  0
  7  8  2  0
  7  9  1  0
  9 10  2  0
  9 11  1  0
 11 12  1  0
 12 13  1  0
 13 14  1  0
 13 15  2  0
 12 16  2  0
 16 17  1  0
 17 18  2  0
 18 19  1  0
 19 20  2  0
 20 21  1  0
 21 22  1  0
 22 23  1  0
 23 24  2  0
 24 25  1  0
 25 26  1  0
 25 27  2  0
 27 28  1  0
 20 29  1  0
 29 30  2  0
 30 11  1  0
 30 17  1  0
 27 22  1  0
  1 31  1  0
  1 32  1  0
  1 33  1  0
  3 34  1  0
  3 35  1  0
  6 36  1  0
 14 37  1  0
 14 38  1  0
 16 39  1  0
 18 40  1  0
 19 41  1  0
 21 42  1  0
 21 43  1  0
 23 44  1  0
 29 45  1  0
M  END
>  <smiles>  (71) 
CN(CC(=O)O)C(=O)C(=O)n1c(C(N)=O)cc2ccc(Cn3cnc(Cl)c3Cl)cc21

>  <score_type>  (71) 
oracle

>  <origin>  (71) 
adg

>  <m_score__min__energy>  (71) 
-8.4900000000000002

>  <m_primary>  (71) 
energy

$$$$
77:0
     RDKit          3D

 51 52  0  0  0  0  0  0  0  0999 V2000
  141.5100  156.1580  134.5540 N   0  0  0  0  0  0  0  0  0  0  0  0
  142.1270  157.4310  134.5490 C   0  0  0  0  0  0  0  0  0  0  0  0
  141.4470  158.3650  135.0790 O   0  0  0  0  0  0  0  0  0  0  0  0
  143.4390  157.7500  134.0150 C   0  0  0  0  0  0  0  0  0  0  0  0
  143.8270  159.1110  133.9770 C   0  0  0  0  0  0  0  0  0  0  0  0
  145.1260  159.1430  133.5570 C   0  0  0  0  0  0  0  0  0  0  0  0
  145.9830  160.2000  133.3450 C   0  0  0  0  0  0  0  0  0  0  0  0
  147.2750  160.0130  132.9070 C   0  0  0  0  0  0  0  0  0  0  0  0
  147.6810  158.7170  132.6860 C   0  0  0  0  0  0  0  0  0  0  0  0
  149.0790  158.4640  132.2090 C   0  0  0  0  0  0  0  0  0  0  0  0
  149.1530  158.7100  130.8510 F   0  0  0  0  0  0  0  0  0  0  0  0
  149.4570  157.1520  132.4470 F   0  0  0  0  0  0  0  0  0  0  0  0
  149.9220  159.3480  132.8460 F   0  0  0  0  0  0  0  0  0  0  0  0
  146.8100  157.6530  132.9020 C   0  0  0  0  0  0  0  0  0  0  0  0
  145.5060  157.8560  133.3460 C   0  0  0  0  0  0  0  0  0  0  0  0
  144.4710  156.9820  133.6200 N   0  0  0  0  0  0  0  0  0  0  0  0
  144.6840  155.6120  133.5880 C   0  0  0  0  0  0  0  0  0  0  0  0
  143.6600  154.9210  133.1600 O   0  0  0  0  0  0  0  0  0  0  0  0
  145.7920  154.8020  133.9350 N   0  0  0  0  0  0  0  0  0  0  0  0
  146.5210  155.1080  135.1310 C   0  0  0  0  0  0  0  0  0  0  0  0
  146.1250  154.1210  136.2350 C   0  0  0  0  0  0  0  0  0  0  0  0
  146.9990  153.3630  136.7360 O   0  0  0  0  0  0  0  0  0  0  0  0
  144.8080  154.0760  136.6730 O   0  0  0  0  0  0  0  0  0  0  0  0
  146.0970  153.7160  133.0750 C   0  0  0  0  0  0  0  0  0  0  0  0
  147.3270  153.7870  132.5900 O   0  0  0  0  0  0  0  0  0  0  0  0
  145.3800  152.5770  132.6120 C   0  0  0  0  0  0  0  0  0  0  0  0
  144.0030  152.3540  132.7920 N   0  0  0  0  0  0  0  0  0  0  0  0
  143.2930  151.1420  132.6110 C   0  0  0  0  0  0  0  0  0  0  0  0
  143.9570  150.1140  132.2350 O   0  0  0  0  0  0  0  0  0  0  0  0
  141.8310  151.0470  132.8460 C   0  0  0  0  0  0  0  0  0  0  0  0
  141.5430  151.5320  134.2540 C   0  0  0  0  0  0  0  0  0  0  0  0
  141.7260  153.0190  134.3230 C   0  0  0  0  0  0  0  0  0  0  0  0
  141.0270  153.8110  133.6300 O   0  0  0  0  0  0  0  0  0  0  0  0
  142.6960  153.5200  135.1780 O   0  0  0  0  0  0  0  0  0  0  0  0
  140.4770  156.0550  134.4300 H   0  0  0  0  0  0  0  0  0  0  0  0
  142.1370  155.3180  134.6900 H   0  0  0  0  0  0  0  0  0  0  0  0
  143.2012  159.9777  134.2364 H   0  0  0  0  0  0  0  0  0  0  0  0
  145.6250  161.2234  133.5310 H   0  0  0  0  0  0  0  0  0  0  0  0
  147.9532  160.8630  132.7409 H   0  0  0  0  0  0  0  0  0  0  0  0
  147.1604  156.6268  132.7174 H   0  0  0  0  0  0  0  0  0  0  0  0
  147.6001  155.0252  134.9344 H   0  0  0  0  0  0  0  0  0  0  0  0
  146.2855  156.1332  135.4528 H   0  0  0  0  0  0  0  0  0  0  0  0
  144.3950  154.8540  137.1970 H   0  0  0  0  0  0  0  0  0  0  0  0
  145.5392  152.5548  131.5238 H   0  0  0  0  0  0  0  0  0  0  0  0
  145.7910  151.8043  133.2784 H   0  0  0  0  0  0  0  0  0  0  0  0
  143.3990  153.1780  133.0990 H   0  0  0  0  0  0  0  0  0  0  0  0
  141.2957  151.6757  132.1192 H   0  0  0  0  0  0  0  0  0  0  0  0
  141.4946  150.0065  132.7271 H   0  0  0  0  0  0  0  0  0  0  0  0
  140.5073  151.2780  134.5237 H   0  0  0  0  0  0  0  0  0  0  0  0
  142.2368  151.0463  134.9560 H   0  0  0  0  0  0  0  0  0  0  0  0
  143.6640  153.6540  134.8820 H   0  0  0  0  0  0  0  0  0  0  0  0
  1  2  1  0
  2  3  2  0
  2  4  1  0
  4  5  2  0
  5  6  1  0
  6  7  2  0
  7  8  1  0
  8  9  2  0
  9 10  1  0
 10 11  1  0
 10 12  1  0
 10 13  1  0
  9 14  1  0
 14 15  2  0
 15 16  1  0
 16 17  1  0
 17 18  2  0
 17 19  1  0
 19 20  1  0
 20 21  1  0
 21 22  2  0
 21 23  1  0
 19 24  1  0
 24 25  2  0
 24 26  1  0
 26 27  1  0
 27 28  1  0
 28 29  2  0
 28 30  1  0
 30 31  1  0
 31 32  1  0
 32 33  2  0
 32 34  1  0
 16  4  1  0
 15  6  1  0
  1 35  1  0
  1 36  1  0
  5 37  1  0
  7 38  1  0
  8 39  1  0
 14 40  1  0
 20 41  1  0
 20 42  1  0
 23 43  1  0
 26 44  1  0
 26 45  1  0
 27 46  1  0
 30 47  1  0
 30 48  1  0
 31 49  1  0
 31 50  1  0
 34 51  1  0
M  END
>  <smiles>  (72) 
NC(=O)c1cc2ccc(C(F)(F)F)cc2n1C(=O)N(CC(=O)O)C(=O)CNC(=O)CCC(=O)O

>  <score_type>  (72) 
oracle

>  <origin>  (72) 
adg

>  <m_score__min__energy>  (72) 
-6.5899999999999999

>  <m_primary>  (72) 
energy

$$$$
78:0
     RDKit          3D

 41 43  0  0  0  0  0  0  0  0999 V2000
  139.1070  161.1640  131.6030 C   0  0  0  0  0  0  0  0  0  0  0  0
  139.3680  159.8820  132.0910 C   0  0  0  0  0  0  0  0  0  0  0  0
  138.4730  158.9290  131.5180 C   0  0  0  0  0  0  0  0  0  0  0  0
  138.9880  158.2310  130.5510 O   0  0  0  0  0  0  0  0  0  0  0  0
  137.1860  158.6130  131.8050 O   0  0  0  0  0  0  0  0  0  0  0  0
  140.5100  159.8350  132.9270 C   0  0  0  0  0  0  0  0  0  0  0  0
  140.9590  161.0540  133.1780 O   0  0  0  0  0  0  0  0  0  0  0  0
  141.2730  158.8460  133.5380 N   0  0  0  0  0  0  0  0  0  0  0  0
  140.7350  157.7240  134.0960 C   0  0  0  0  0  0  0  0  0  0  0  0
  139.3580  157.3620  134.3780 C   0  0  0  0  0  0  0  0  0  0  0  0
  138.5420  156.7210  133.3570 N   0  0  0  0  0  0  0  0  0  0  0  0
  138.7490  157.5460  135.4570 O   0  0  0  0  0  0  0  0  0  0  0  0
  141.7810  156.8670  134.4760 C   0  0  0  0  0  0  0  0  0  0  0  0
  142.9490  157.4610  134.1510 C   0  0  0  0  0  0  0  0  0  0  0  0
  144.2470  157.0130  134.2850 C   0  0  0  0  0  0  0  0  0  0  0  0
  145.2670  157.7950  133.8250 C   0  0  0  0  0  0  0  0  0  0  0  0
  145.0240  159.0120  133.2330 C   0  0  0  0  0  0  0  0  0  0  0  0
  146.0390  159.8510  132.7160 N   0  0  0  0  0  0  0  0  0  0  0  0
  147.4000  159.9130  133.1560 C   0  0  0  0  0  0  0  0  0  0  0  0
  148.3080  160.0080  131.9910 C   0  0  0  0  0  0  0  0  0  0  0  0
  149.6250  159.6970  131.8180 C   0  0  0  0  0  0  0  0  0  0  0  0
  149.9740  159.9870  130.5080 C   0  0  0  0  0  0  0  0  0  0  0  0
  148.8180  160.4760  129.9380 C   0  0  0  0  0  0  0  0  0  0  0  0
  147.8720  160.4740  130.8210 O   0  0  0  0  0  0  0  0  0  0  0  0
  143.7110  159.4100  133.1280 C   0  0  0  0  0  0  0  0  0  0  0  0
  142.6330  158.6780  133.5730 C   0  0  0  0  0  0  0  0  0  0  0  0
  139.7109  162.0168  131.9465 H   0  0  0  0  0  0  0  0  0  0  0  0
  138.2974  161.3211  130.8750 H   0  0  0  0  0  0  0  0  0  0  0  0
  136.8870  157.8510  132.4090 H   0  0  0  0  0  0  0  0  0  0  0  0
  137.8490  155.9860  133.6070 H   0  0  0  0  0  0  0  0  0  0  0  0
  138.7030  157.0510  132.3740 H   0  0  0  0  0  0  0  0  0  0  0  0
  141.6682  155.8832  134.9550 H   0  0  0  0  0  0  0  0  0  0  0  0
  144.4567  156.0409  134.7552 H   0  0  0  0  0  0  0  0  0  0  0  0
  146.3043  157.4444  133.9301 H   0  0  0  0  0  0  0  0  0  0  0  0
  145.7820  160.5110  131.9190 H   0  0  0  0  0  0  0  0  0  0  0  0
  147.5355  160.7975  133.7958 H   0  0  0  0  0  0  0  0  0  0  0  0
  147.6367  159.0007  133.7231 H   0  0  0  0  0  0  0  0  0  0  0  0
  150.2958  159.2861  132.5869 H   0  0  0  0  0  0  0  0  0  0  0  0
  150.9558  159.8559  130.0295 H   0  0  0  0  0  0  0  0  0  0  0  0
  148.7158  160.8146  128.8964 H   0  0  0  0  0  0  0  0  0  0  0  0
  143.5081  160.3821  132.6549 H   0  0  0  0  0  0  0  0  0  0  0  0
  1  2  2  0
  2  3  1  0
  3  4  2  0
  3  5  1  0
  2  6  1  0
  6  7  2  0
  6  8  1  0
  8  9  1  0
  9 10  1  0
 10 11  1  0
 10 12  2  0
  9 13  2  0
 13 14  1  0
 14 15  2  0
 15 16  1  0
 16 17  2  0
 17 18  1  0
 18 19  1  0
 19 20  1  0
 20 21  2  0
 21 22  1  0
 22 23  2  0
 23 24  1  0
 17 25  1  0
 25 26  2  0
 26  8  1  0
 26 14  1  0
 24 20  1  0
  1 27  1  0
  1 28  1  0
  5 29  1  0
 11 30  1  0
 11 31  1  0
 13 32  1  0
 15 33  1  0
 16 34  1  0
 18 35  1  0
 19 36  1  0
 19 37  1  0
 21 38  1  0
 22 39  1  0
 23 40  1  0
 25 41  1  0
M  END
>  <smiles>  (73) 
C=C(C(=O)O)C(=O)n1c(C(N)=O)cc2ccc(NCc3ccco3)cc21

>  <score_type>  (73) 
oracle

>  <origin>  (73) 
adg

>  <m_score__min__energy>  (73) 
-8.3200000000000003

>  <m_primary>  (73) 
energy

$$$$
79:0
     RDKit          3D

 43 44  0  0  1  0  0  0  0  0999 V2000
  147.2320  156.0210  134.1540 C   0  0  0  0  0  0  0  0  0  0  0  0
  147.0120  154.5630  133.9710 N   0  0  0  0  0  0  0  0  0  0  0  0
  148.1050  153.7260  134.3450 C   0  0  0  0  0  0  0  0  0  0  0  0
  148.8870  153.2380  133.1160 C   0  0  2  0  0  0  0  0  0  0  0  0
  148.6410  154.0620  132.0270 O   0  0  0  0  0  0  0  0  0  0  0  0
  148.4980  151.8120  132.7870 C   0  0  0  0  0  0  0  0  0  0  0  0
  147.3150  151.7170  132.0650 O   0  0  0  0  0  0  0  0  0  0  0  0
  145.7560  154.2190  133.4390 C   0  0  0  0  0  0  0  0  0  0  0  0
  145.8320  153.7740  132.2270 O   0  0  0  0  0  0  0  0  0  0  0  0
  144.4850  154.3270  134.1200 C   0  0  0  0  0  0  0  0  0  0  0  0
  144.5340  154.9190  135.2550 O   0  0  0  0  0  0  0  0  0  0  0  0
  143.2210  153.8840  133.7020 N   0  0  0  0  0  0  0  0  0  0  0  0
  142.8160  152.7740  133.0730 C   0  0  0  0  0  0  0  0  0  0  0  0
  143.4680  151.4850  132.8970 C   0  0  0  0  0  0  0  0  0  0  0  0
  144.8870  151.4600  132.6090 N   0  0  0  0  0  0  0  0  0  0  0  0
  142.9270  150.3650  132.9690 O   0  0  0  0  0  0  0  0  0  0  0  0
  141.4660  152.9060  132.6900 C   0  0  0  0  0  0  0  0  0  0  0  0
  141.0580  154.1340  133.1140 C   0  0  0  0  0  0  0  0  0  0  0  0
  139.8240  154.7400  132.9870 C   0  0  0  0  0  0  0  0  0  0  0  0
  139.6160  156.0040  133.4920 C   0  0  0  0  0  0  0  0  0  0  0  0
  140.6750  156.6230  134.1170 C   0  0  0  0  0  0  0  0  0  0  0  0
  140.4610  157.9850  134.6640 C   0  0  0  0  0  0  0  0  0  0  0  0
  139.4920  157.8910  135.6450 F   0  0  0  0  0  0  0  0  0  0  0  0
  139.9480  158.7860  133.6580 F   0  0  0  0  0  0  0  0  0  0  0  0
  141.5940  158.5110  135.2490 F   0  0  0  0  0  0  0  0  0  0  0  0
  141.9170  155.9950  134.2370 C   0  0  0  0  0  0  0  0  0  0  0  0
  142.1310  154.7200  133.7300 C   0  0  0  0  0  0  0  0  0  0  0  0
  147.2672  156.2545  135.2284 H   0  0  0  0  0  0  0  0  0  0  0  0
  148.1839  156.3099  133.6846 H   0  0  0  0  0  0  0  0  0  0  0  0
  146.4077  156.5780  133.6846 H   0  0  0  0  0  0  0  0  0  0  0  0
  148.7836  154.2947  134.9977 H   0  0  0  0  0  0  0  0  0  0  0  0
  147.7026  152.8467  134.8694 H   0  0  0  0  0  0  0  0  0  0  0  0
  149.9621  153.2725  133.3463 H   0  0  0  0  0  0  0  0  0  0  0  0
  147.7610  153.7920  131.6640 H   0  0  0  0  0  0  0  0  0  0  0  0
  149.3059  151.3577  132.1946 H   0  0  0  0  0  0  0  0  0  0  0  0
  148.3394  151.2894  133.7418 H   0  0  0  0  0  0  0  0  0  0  0  0
  147.0110  152.6590  131.8630 H   0  0  0  0  0  0  0  0  0  0  0  0
  145.5820  151.1950  133.3540 H   0  0  0  0  0  0  0  0  0  0  0  0
  145.1710  151.7170  131.6300 H   0  0  0  0  0  0  0  0  0  0  0  0
  140.8598  152.1617  132.1529 H   0  0  0  0  0  0  0  0  0  0  0  0
  139.0035  154.2108  132.4802 H   0  0  0  0  0  0  0  0  0  0  0  0
  138.6391  156.5011  133.3994 H   0  0  0  0  0  0  0  0  0  0  0  0
  142.7408  156.5202  134.7425 H   0  0  0  0  0  0  0  0  0  0  0  0
  1  2  1  0
  2  3  1  0
  3  4  1  0
  4  5  1  0
  4  6  1  0
  6  7  1  0
  2  8  1  0
  8  9  2  0
  8 10  1  0
 10 11  2  0
 10 12  1  0
 12 13  1  0
 13 14  1  0
 14 15  1  0
 14 16  2  0
 13 17  2  0
 17 18  1  0
 18 19  2  0
 19 20  1  0
 20 21  2  0
 21 22  1  0
 22 23  1  0
 22 24  1  0
 22 25  1  0
 21 26  1  0
 26 27  2  0
 27 12  1  0
 27 18  1  0
  1 28  1  0
  1 29  1  0
  1 30  1  0
  3 31  1  0
  3 32  1  0
  4 33  1  1
  5 34  1  0
  6 35  1  0
  6 36  1  0
  7 37  1  0
 15 38  1  0
 15 39  1  0
 17 40  1  0
 19 41  1  0
 20 42  1  0
 26 43  1  0
M  END
>  <smiles>  (74) 
CN(CC(O)CO)C(=O)C(=O)n1c(C(N)=O)cc2ccc(C(F)(F)F)cc21

>  <score_type>  (74) 
oracle

>  <origin>  (74) 
adg

>  <m_score__min__energy>  (74) 
-6.75

>  <m_primary>  (74) 
energy

$$$$
80:0
     RDKit          3D

 45 46  0  0  0  0  0  0  0  0999 V2000
  149.6210  151.5290  133.3380 C   0  0  0  0  0  0  0  0  0  0  0  0
  148.9580  152.4280  132.3260 C   0  0  0  0  0  0  0  0  0  0  0  0
  147.8860  153.0620  132.9170 O   0  0  0  0  0  0  0  0  0  0  0  0
  148.1250  154.7210  133.1350 P   0  0  0  0  0  0  0  0  0  0  0  0
  149.4400  155.0960  132.4940 O   0  0  0  0  0  0  0  0  0  0  0  0
  146.7550  155.6570  132.2860 C   0  0  0  0  0  0  0  0  0  0  0  0
  146.1970  156.6220  133.2400 C   0  0  0  0  0  0  0  0  0  0  0  0
  145.6240  156.0320  134.2400 O   0  0  0  0  0  0  0  0  0  0  0  0
  146.1870  158.0080  133.2370 N   0  0  0  0  0  0  0  0  0  0  0  0
  147.1860  158.9030  132.9960 C   0  0  0  0  0  0  0  0  0  0  0  0
  148.5560  158.7250  132.6160 C   0  0  0  0  0  0  0  0  0  0  0  0
  149.2970  157.5500  132.4140 N   0  0  0  0  0  0  0  0  0  0  0  0
  149.2630  159.7940  132.4130 O   0  0  0  0  0  0  0  0  0  0  0  0
  146.6410  160.1990  133.1520 C   0  0  0  0  0  0  0  0  0  0  0  0
  145.3390  160.0810  133.4790 C   0  0  0  0  0  0  0  0  0  0  0  0
  144.3850  161.0400  133.7330 C   0  0  0  0  0  0  0  0  0  0  0  0
  143.0960  160.7010  134.0540 C   0  0  0  0  0  0  0  0  0  0  0  0
  142.7830  159.3680  134.1150 C   0  0  0  0  0  0  0  0  0  0  0  0
  141.3880  158.9870  134.4610 C   0  0  0  0  0  0  0  0  0  0  0  0
  141.0350  159.4340  135.7180 F   0  0  0  0  0  0  0  0  0  0  0  0
  140.4890  159.5430  133.5410 F   0  0  0  0  0  0  0  0  0  0  0  0
  143.7560  158.4040  133.8550 C   0  0  0  0  0  0  0  0  0  0  0  0
  145.0590  158.7380  133.5310 C   0  0  0  0  0  0  0  0  0  0  0  0
  148.1060  155.1640  134.7650 O   0  0  0  0  0  0  0  0  0  0  0  0
  147.5100  154.1320  135.4890 C   0  0  0  0  0  0  0  0  0  0  0  0
  148.1230  154.0830  136.8820 C   0  0  0  0  0  0  0  0  0  0  0  0
  149.3690  151.8707  134.3528 H   0  0  0  0  0  0  0  0  0  0  0  0
  149.2661  150.4970  133.1999 H   0  0  0  0  0  0  0  0  0  0  0  0
  150.7118  151.5632  133.1999 H   0  0  0  0  0  0  0  0  0  0  0  0
  149.6799  153.1786  131.9718 H   0  0  0  0  0  0  0  0  0  0  0  0
  148.6085  151.8290  131.4722 H   0  0  0  0  0  0  0  0  0  0  0  0
  147.1550  156.1886  131.4100 H   0  0  0  0  0  0  0  0  0  0  0  0
  145.9725  154.9612  131.9490 H   0  0  0  0  0  0  0  0  0  0  0  0
  149.9780  157.1320  133.0720 H   0  0  0  0  0  0  0  0  0  0  0  0
  149.1400  157.0490  131.4890 H   0  0  0  0  0  0  0  0  0  0  0  0
  147.1884  161.1449  133.0272 H   0  0  0  0  0  0  0  0  0  0  0  0
  144.6632  162.1028  133.6772 H   0  0  0  0  0  0  0  0  0  0  0  0
  142.3385  161.4727  134.2558 H   0  0  0  0  0  0  0  0  0  0  0  0
  141.3420  157.8882  134.4367 H   0  0  0  0  0  0  0  0  0  0  0  0
  143.4782  157.3411  133.9093 H   0  0  0  0  0  0  0  0  0  0  0  0
  146.4282  154.3148  135.5687 H   0  0  0  0  0  0  0  0  0  0  0  0
  147.6782  153.1737  134.9758 H   0  0  0  0  0  0  0  0  0  0  0  0
  147.3249  154.1468  137.6363 H   0  0  0  0  0  0  0  0  0  0  0  0
  148.6719  153.1381  137.0080 H   0  0  0  0  0  0  0  0  0  0  0  0
  148.8151  154.9287  137.0080 H   0  0  0  0  0  0  0  0  0  0  0  0
  1  2  1  0
  2  3  1  0
  3  4  1  0
  4  5  2  0
  4  6  1  0
  6  7  1  0
  7  8  2  0
  7  9  1  0
  9 10  1  0
 10 11  1  0
 11 12  1  0
 11 13  2  0
 10 14  2  0
 14 15  1  0
 15 16  2  0
 16 17  1  0
 17 18  2  0
 18 19  1  0
 19 20  1  0
 19 21  1  0
 18 22  1  0
 22 23  2  0
  4 24  1  0
 24 25  1  0
 25 26  1  0
 23  9  1  0
 23 15  1  0
  1 27  1  0
  1 28  1  0
  1 29  1  0
  2 30  1  0
  2 31  1  0
  6 32  1  0
  6 33  1  0
 12 34  1  0
 12 35  1  0
 14 36  1  0
 16 37  1  0
 17 38  1  0
 19 39  1  0
 22 40  1  0
 25 41  1  0
 25 42  1  0
 26 43  1  0
 26 44  1  0
 26 45  1  0
M  END
>  <smiles>  (75) 
CCOP(=O)(CC(=O)n1c(C(N)=O)cc2ccc(C(F)F)cc21)OCC

>  <score_type>  (75) 
oracle

>  <origin>  (75) 
adg

>  <m_score__min__energy>  (75) 
-7.0300000000000002

>  <m_primary>  (75) 
energy

$$$$
81:0
     RDKit          3D

 45 46  0  0  1  0  0  0  0  0999 V2000
  141.1760  159.5750  133.5900 N   0  0  0  0  0  0  0  0  0  0  0  0
  142.2830  160.5140  133.6020 C   0  0  0  0  0  0  0  0  0  0  0  0
  141.9150  161.6960  133.7070 O   0  0  0  0  0  0  0  0  0  0  0  0
  143.6210  159.9950  133.4950 C   0  0  0  0  0  0  0  0  0  0  0  0
  144.7400  160.8450  133.5230 C   0  0  0  0  0  0  0  0  0  0  0  0
  145.8540  160.0900  133.4040 C   0  0  0  0  0  0  0  0  0  0  0  0
  147.1820  160.4520  133.3770 C   0  0  0  0  0  0  0  0  0  0  0  0
  148.1690  159.5070  133.2450 C   0  0  0  0  0  0  0  0  0  0  0  0
  147.7900  158.1990  133.1400 C   0  0  0  0  0  0  0  0  0  0  0  0
  148.8510  157.1640  132.9970 C   0  0  0  0  0  0  0  0  0  0  0  0
  148.2450  155.9930  132.5990 F   0  0  0  0  0  0  0  0  0  0  0  0
  149.7250  157.5750  132.0070 F   0  0  0  0  0  0  0  0  0  0  0  0
  146.4490  157.8440  133.1680 C   0  0  0  0  0  0  0  0  0  0  0  0
  145.4350  158.7820  133.3010 C   0  0  0  0  0  0  0  0  0  0  0  0
  144.0700  158.7210  133.3560 N   0  0  0  0  0  0  0  0  0  0  0  0
  143.3790  157.5150  133.2740 C   0  0  0  0  0  0  0  0  0  0  0  0
  142.2650  157.5380  132.6410 O   0  0  0  0  0  0  0  0  0  0  0  0
  143.7110  156.1880  133.8020 C   0  0  0  0  0  0  0  0  0  0  0  0
  143.5510  156.3530  135.2360 O   0  0  0  0  0  0  0  0  0  0  0  0
  142.6900  154.9980  135.7690 P   0  0  1  0  0  0  0  0  0  0  0  0
  142.9180  153.8670  134.8070 O   0  0  0  0  0  0  0  0  0  0  0  0
  143.2370  154.5230  137.2890 O   0  0  0  0  0  0  0  0  0  0  0  0
  141.0460  155.4470  135.8470 O   0  0  0  0  0  0  0  0  0  0  0  0
  140.6870  155.8450  134.5450 C   0  0  0  0  0  0  0  0  0  0  0  0
  139.9950  157.1410  134.6480 C   0  0  0  0  0  0  0  0  0  0  0  0
  139.4820  157.7430  133.6520 O   0  0  0  0  0  0  0  0  0  0  0  0
  139.8970  157.7300  135.8960 O   0  0  0  0  0  0  0  0  0  0  0  0
  141.1860  158.3420  136.8030 P   0  0  0  0  0  0  0  0  0  0  0  0
  142.2930  158.8800  135.9090 O   0  0  0  0  0  0  0  0  0  0  0  0
  141.8300  157.0730  137.7150 O   0  0  0  0  0  0  0  0  0  0  0  0
  140.7490  159.5710  137.8650 O   0  0  0  0  0  0  0  0  0  0  0  0
  140.7450  159.2490  132.7020 H   0  0  0  0  0  0  0  0  0  0  0  0
  140.8190  159.2310  134.5250 H   0  0  0  0  0  0  0  0  0  0  0  0
  144.7133  161.9400  133.6246 H   0  0  0  0  0  0  0  0  0  0  0  0
  147.4562  161.5138  133.4624 H   0  0  0  0  0  0  0  0  0  0  0  0
  149.2307  159.7939  133.2244 H   0  0  0  0  0  0  0  0  0  0  0  0
  149.3928  157.0162  133.9428 H   0  0  0  0  0  0  0  0  0  0  0  0
  146.1800  156.7809  133.0817 H   0  0  0  0  0  0  0  0  0  0  0  0
  143.0210  155.4246  133.4132 H   0  0  0  0  0  0  0  0  0  0  0  0
  144.7176  155.8490  133.5160 H   0  0  0  0  0  0  0  0  0  0  0  0
  143.2590  155.3380  137.8510 H   0  0  0  0  0  0  0  0  0  0  0  0
  141.5884  155.9499  133.9233 H   0  0  0  0  0  0  0  0  0  0  0  0
  140.0317  155.0941  134.0794 H   0  0  0  0  0  0  0  0  0  0  0  0
  142.4590  156.5060  137.1920 H   0  0  0  0  0  0  0  0  0  0  0  0
  139.7830  159.7800  137.8490 H   0  0  0  0  0  0  0  0  0  0  0  0
  1  2  1  0
  2  3  2  0
  2  4  1  0
  4  5  2  0
  5  6  1  0
  6  7  2  0
  7  8  1  0
  8  9  2  0
  9 10  1  0
 10 11  1  0
 10 12  1  0
  9 13  1  0
 13 14  2  0
 14 15  1  0
 15 16  1  0
 16 17  2  0
 16 18  1  0
 18 19  1  0
 20 19  1  1
 20 21  2  0
 20 22  1  0
 20 23  1  0
 23 24  1  0
 24 25  1  0
 25 26  2  0
 25 27  1  0
 27 28  1  0
 28 29  2  0
 28 30  1  0
 28 31  1  0
 15  4  1  0
 14  6  1  0
  1 32  1  0
  1 33  1  0
  5 34  1  0
  7 35  1  0
  8 36  1  0
 10 37  1  0
 13 38  1  0
 18 39  1  0
 18 40  1  0
 22 41  1  0
 24 42  1  0
 24 43  1  0
 30 44  1  0
 31 45  1  0
M  END
>  <smiles>  (76) 
NC(=O)c1cc2ccc(C(F)F)cc2n1C(=O)COP(=O)(O)OCC(=O)OP(=O)(O)O

>  <score_type>  (76) 
oracle

>  <origin>  (76) 
adg

>  <m_score__min__energy>  (76) 
-6.3499999999999996

>  <m_primary>  (76) 
energy

$$$$
82:0
     RDKit          3D

 57 59  0  0  0  0  0  0  0  0999 V2000
  141.3560  155.7520  137.7210 C   0  0  0  0  0  0  0  0  0  0  0  0
  141.5090  157.0120  138.3890 N   0  0  0  0  0  0  0  0  0  0  0  0
  141.9290  157.0780  139.7720 C   0  0  0  0  0  0  0  0  0  0  0  0
  141.2420  158.2230  137.6680 C   0  0  0  0  0  0  0  0  0  0  0  0
  141.3720  159.3490  138.2470 O   0  0  0  0  0  0  0  0  0  0  0  0
  140.8220  158.1830  136.2730 C   0  0  0  0  0  0  0  0  0  0  0  0
  139.5120  157.8720  135.9150 C   0  0  0  0  0  0  0  0  0  0  0  0
  139.1540  157.8440  134.5640 C   0  0  0  0  0  0  0  0  0  0  0  0
  140.1250  158.1300  133.6000 C   0  0  0  0  0  0  0  0  0  0  0  0
  141.4230  158.4380  133.9320 C   0  0  0  0  0  0  0  0  0  0  0  0
  142.4510  158.7070  133.0000 N   0  0  0  0  0  0  0  0  0  0  0  0
  143.7560  158.1910  133.0330 C   0  0  0  0  0  0  0  0  0  0  0  0
  144.8530  159.0280  133.0260 C   0  0  0  0  0  0  0  0  0  0  0  0
  146.1260  158.5020  133.0580 C   0  0  0  0  0  0  0  0  0  0  0  0
  146.2860  157.1190  133.0960 C   0  0  0  0  0  0  0  0  0  0  0  0
  147.4040  156.3590  133.1230 C   0  0  0  0  0  0  0  0  0  0  0  0
  147.0590  155.0050  133.1490 C   0  0  0  0  0  0  0  0  0  0  0  0
  148.0240  153.9470  133.1770 C   0  0  0  0  0  0  0  0  0  0  0  0
  147.5940  152.6220  133.5810 N   0  0  0  0  0  0  0  0  0  0  0  0
  149.2360  154.0220  132.8880 O   0  0  0  0  0  0  0  0  0  0  0  0
  145.7060  154.9810  133.1360 N   0  0  0  0  0  0  0  0  0  0  0  0
  144.8830  153.8290  133.1350 C   0  0  0  0  0  0  0  0  0  0  0  0
  144.9900  152.9850  132.1770 O   0  0  0  0  0  0  0  0  0  0  0  0
  143.9480  153.5110  134.0890 O   0  0  0  0  0  0  0  0  0  0  0  0
  142.5740  153.4130  133.9610 C   0  0  0  0  0  0  0  0  0  0  0  0
  142.0810  153.3400  132.5150 C   0  0  0  0  0  0  0  0  0  0  0  0
  141.9690  154.7030  134.5140 C   0  0  0  0  0  0  0  0  0  0  0  0
  141.9570  152.2990  134.7740 C   0  0  0  0  0  0  0  0  0  0  0  0
  145.2190  156.2480  133.1050 C   0  0  0  0  0  0  0  0  0  0  0  0
  143.9590  156.8120  133.0730 C   0  0  0  0  0  0  0  0  0  0  0  0
  141.7470  158.4590  135.2750 C   0  0  0  0  0  0  0  0  0  0  0  0
  141.2587  154.9504  138.4680 H   0  0  0  0  0  0  0  0  0  0  0  0
  140.4544  155.7779  137.0913 H   0  0  0  0  0  0  0  0  0  0  0  0
  142.2376  155.5614  137.0913 H   0  0  0  0  0  0  0  0  0  0  0  0
  141.0561  156.9408  140.4272 H   0  0  0  0  0  0  0  0  0  0  0  0
  142.6645  156.2844  139.9701 H   0  0  0  0  0  0  0  0  0  0  0  0
  142.3856  158.0589  139.9701 H   0  0  0  0  0  0  0  0  0  0  0  0
  138.7641  157.6499  136.6905 H   0  0  0  0  0  0  0  0  0  0  0  0
  138.1240  157.6006  134.2641 H   0  0  0  0  0  0  0  0  0  0  0  0
  139.8403  158.1078  132.5377 H   0  0  0  0  0  0  0  0  0  0  0  0
  142.2050  159.3520  132.2080 H   0  0  0  0  0  0  0  0  0  0  0  0
  144.7107  160.1183  132.9948 H   0  0  0  0  0  0  0  0  0  0  0  0
  147.0037  159.1651  133.0536 H   0  0  0  0  0  0  0  0  0  0  0  0
  148.4327  156.7487  133.1243 H   0  0  0  0  0  0  0  0  0  0  0  0
  146.6330  152.2750  133.3820 H   0  0  0  0  0  0  0  0  0  0  0  0
  148.2380  151.9730  134.0840 H   0  0  0  0  0  0  0  0  0  0  0  0
  140.9929  153.1789  132.5063 H   0  0  0  0  0  0  0  0  0  0  0  0
  142.3162  154.2828  131.9994 H   0  0  0  0  0  0  0  0  0  0  0  0
  142.5793  152.5058  131.9994 H   0  0  0  0  0  0  0  0  0  0  0  0
  141.9832  154.6727  135.6135 H   0  0  0  0  0  0  0  0  0  0  0  0
  142.5573  155.5637  134.1633 H   0  0  0  0  0  0  0  0  0  0  0  0
  140.9310  154.8010  134.1633 H   0  0  0  0  0  0  0  0  0  0  0  0
  142.0777  152.5168  135.8454 H   0  0  0  0  0  0  0  0  0  0  0  0
  140.8864  152.2197  134.5342 H   0  0  0  0  0  0  0  0  0  0  0  0
  142.4577  151.3494  134.5342 H   0  0  0  0  0  0  0  0  0  0  0  0
  143.0819  156.1481  133.0793 H   0  0  0  0  0  0  0  0  0  0  0  0
  142.7793  158.7042  135.5652 H   0  0  0  0  0  0  0  0  0  0  0  0
  1  2  1  0
  2  3  1  0
  2  4  1  0
  4  5  2  0
  4  6  1  0
  6  7  2  0
  7  8  1  0
  8  9  2  0
  9 10  1  0
 10 11  1  0
 11 12  1  0
 12 13  2  0
 13 14  1  0
 14 15  2  0
 15 16  1  0
 16 17  2  0
 17 18  1  0
 18 19  1  0
 18 20  2  0
 17 21  1  0
 21 22  1  0
 22 23  2  0
 22 24  1  0
 24 25  1  0
 25 26  1  0
 25 27  1  0
 25 28  1  0
 21 29  1  0
 29 30  2  0
 10 31  2  0
 31  6  1  0
 30 12  1  0
 29 15  1  0
  1 32  1  0
  1 33  1  0
  1 34  1  0
  3 35  1  0
  3 36  1  0
  3 37  1  0
  7 38  1  0
  8 39  1  0
  9 40  1  0
 11 41  1  0
 13 42  1  0
 14 43  1  0
 16 44  1  0
 19 45  1  0
 19 46  1  0
 26 47  1  0
 26 48  1  0
 26 49  1  0
 27 50  1  0
 27 51  1  0
 27 52  1  0
 28 53  1  0
 28 54  1  0
 28 55  1  0
 30 56  1  0
 31 57  1  0
M  END
>  <smiles>  (77) 
CN(C)C(=O)c1cccc(Nc2ccc3cc(C(N)=O)n(C(=O)OC(C)(C)C)c3c2)c1

>  <score_type>  (77) 
oracle

>  <origin>  (77) 
adg

>  <m_score__min__energy>  (77) 
-8.9100000000000001

>  <m_primary>  (77) 
energy

$$$$
83:0
     RDKit          3D

 44 45  0  0  0  0  0  0  0  0999 V2000
  149.0170  160.1050  129.4520 C   0  0  0  0  0  0  0  0  0  0  0  0
  149.6510  160.1000  130.8110 C   0  0  0  0  0  0  0  0  0  0  0  0
  148.8240  159.3820  131.8240 C   0  0  0  0  0  0  0  0  0  0  0  0
  147.9640  160.0940  132.6170 C   0  0  0  0  0  0  0  0  0  0  0  0
  147.2220  159.3960  133.5360 C   0  0  0  0  0  0  0  0  0  0  0  0
  147.3430  158.0270  133.6470 C   0  0  0  0  0  0  0  0  0  0  0  0
  146.7400  157.1540  134.4800 C   0  0  0  0  0  0  0  0  0  0  0  0
  147.2060  155.8420  134.2290 C   0  0  0  0  0  0  0  0  0  0  0  0
  146.6920  154.7460  134.9870 C   0  0  0  0  0  0  0  0  0  0  0  0
  147.3660  153.6750  135.6080 N   0  0  0  0  0  0  0  0  0  0  0  0
  145.4070  154.6890  135.1450 O   0  0  0  0  0  0  0  0  0  0  0  0
  148.1160  155.9550  133.2130 N   0  0  0  0  0  0  0  0  0  0  0  0
  148.8750  154.8710  132.7490 C   0  0  0  0  0  0  0  0  0  0  0  0
  150.0180  155.2330  132.2330 O   0  0  0  0  0  0  0  0  0  0  0  0
  148.6650  153.4620  132.7260 C   0  0  0  0  0  0  0  0  0  0  0  0
  147.6940  152.7860  133.1220 O   0  0  0  0  0  0  0  0  0  0  0  0
  149.7130  152.5960  132.1630 N   0  0  0  0  0  0  0  0  0  0  0  0
  149.4200  151.1720  132.1790 C   0  0  0  0  0  0  0  0  0  0  0  0
  150.5070  150.3640  131.5310 C   0  0  0  0  0  0  0  0  0  0  0  0
  148.1030  150.8690  131.5030 C   0  0  0  0  0  0  0  0  0  0  0  0
  149.2990  150.7710  133.6030 C   0  0  0  0  0  0  0  0  0  0  0  0
  149.6070  151.6060  134.4820 O   0  0  0  0  0  0  0  0  0  0  0  0
  148.8680  149.5280  134.0160 O   0  0  0  0  0  0  0  0  0  0  0  0
  148.2020  157.2720  132.8590 C   0  0  0  0  0  0  0  0  0  0  0  0
  148.9340  158.0000  131.9500 C   0  0  0  0  0  0  0  0  0  0  0  0
  147.9222  160.1136  129.5582 H   0  0  0  0  0  0  0  0  0  0  0  0
  149.3390  161.0006  128.9005 H   0  0  0  0  0  0  0  0  0  0  0  0
  149.3248  159.2044  128.9005 H   0  0  0  0  0  0  0  0  0  0  0  0
  150.6312  159.6058  130.7413 H   0  0  0  0  0  0  0  0  0  0  0  0
  149.7480  161.1456  131.1387 H   0  0  0  0  0  0  0  0  0  0  0  0
  147.8715  161.1859  132.5207 H   0  0  0  0  0  0  0  0  0  0  0  0
  146.5224  159.9348  134.1919 H   0  0  0  0  0  0  0  0  0  0  0  0
  145.9947  157.4230  135.2430 H   0  0  0  0  0  0  0  0  0  0  0  0
  147.9320  152.9500  135.0710 H   0  0  0  0  0  0  0  0  0  0  0  0
  147.3490  153.5050  136.6590 H   0  0  0  0  0  0  0  0  0  0  0  0
  150.5920  152.9910  131.7870 H   0  0  0  0  0  0  0  0  0  0  0  0
  151.1317  149.8997  132.3083 H   0  0  0  0  0  0  0  0  0  0  0  0
  150.0570  149.5794  130.9050 H   0  0  0  0  0  0  0  0  0  0  0  0
  151.1287  151.0210  130.9050 H   0  0  0  0  0  0  0  0  0  0  0  0
  147.3313  150.6915  132.2665 H   0  0  0  0  0  0  0  0  0  0  0  0
  147.8081  151.7228  130.8752 H   0  0  0  0  0  0  0  0  0  0  0  0
  148.2109  149.9722  130.8752 H   0  0  0  0  0  0  0  0  0  0  0  0
  148.0680  149.3730  134.6140 H   0  0  0  0  0  0  0  0  0  0  0  0
  149.6374  157.4666  131.2937 H   0  0  0  0  0  0  0  0  0  0  0  0
  1  2  1  0
  2  3  1  0
  3  4  2  0
  4  5  1  0
  5  6  2  0
  6  7  1  0
  7  8  2  0
  8  9  1  0
  9 10  1  0
  9 11  2  0
  8 12  1  0
 12 13  1  0
 13 14  2  0
 13 15  1  0
 15 16  2  0
 15 17  1  0
 17 18  1  0
 18 19  1  0
 18 20  1  0
 18 21  1  0
 21 22  2  0
 21 23  1  0
 12 24  1  0
 24 25  2  0
 25  3  1  0
 24  6  1  0
  1 26  1  0
  1 27  1  0
  1 28  1  0
  2 29  1  0
  2 30  1  0
  4 31  1  0
  5 32  1  0
  7 33  1  0
 10 34  1  0
 10 35  1  0
 17 36  1  0
 19 37  1  0
 19 38  1  0
 19 39  1  0
 20 40  1  0
 20 41  1  0
 20 42  1  0
 23 43  1  0
 25 44  1  0
M  END
>  <smiles>  (78) 
CCc1ccc2cc(C(N)=O)n(C(=O)C(=O)NC(C)(C)C(=O)O)c2c1

>  <score_type>  (78) 
oracle

>  <origin>  (78) 
adg

>  <m_score__min__energy>  (78) 
-8.7699999999999996

>  <m_primary>  (78) 
energy

$$$$
84:0
     RDKit          3D

 37 38  0  0  0  0  0  0  0  0999 V2000
  147.3160  153.4210  132.8860 N   0  0  0  0  0  0  0  0  0  0  0  0
  147.7920  154.7040  133.1860 C   0  0  0  0  0  0  0  0  0  0  0  0
  148.8120  155.1820  132.6150 O   0  0  0  0  0  0  0  0  0  0  0  0
  147.0720  155.5830  134.2390 C   0  0  0  0  0  0  0  0  0  0  0  0
  146.2340  156.4610  133.4190 C   0  0  0  0  0  0  0  0  0  0  0  0
  145.4470  155.7810  132.6420 O   0  0  0  0  0  0  0  0  0  0  0  0
  146.1570  157.8550  133.3540 N   0  0  0  0  0  0  0  0  0  0  0  0
  147.1080  158.7830  133.0660 C   0  0  0  0  0  0  0  0  0  0  0  0
  148.4790  158.6530  132.6750 C   0  0  0  0  0  0  0  0  0  0  0  0
  149.2490  157.5210  132.3880 N   0  0  0  0  0  0  0  0  0  0  0  0
  149.1530  159.7570  132.5520 O   0  0  0  0  0  0  0  0  0  0  0  0
  146.5000  160.0420  133.1730 C   0  0  0  0  0  0  0  0  0  0  0  0
  145.1910  159.8790  133.5220 C   0  0  0  0  0  0  0  0  0  0  0  0
  144.1940  160.8020  133.7430 C   0  0  0  0  0  0  0  0  0  0  0  0
  142.9280  160.4020  134.0890 C   0  0  0  0  0  0  0  0  0  0  0  0
  142.6940  159.0540  134.2050 C   0  0  0  0  0  0  0  0  0  0  0  0
  141.3280  158.6240  134.5800 C   0  0  0  0  0  0  0  0  0  0  0  0
  140.8120  159.3570  135.7920 C   0  0  0  0  0  0  0  0  0  0  0  0
  140.9810  158.6090  137.0510 C   0  0  0  0  0  0  0  0  0  0  0  0
  141.7470  158.9870  137.9550 O   0  0  0  0  0  0  0  0  0  0  0  0
  143.7110  158.1320  133.9800 C   0  0  0  0  0  0  0  0  0  0  0  0
  144.9960  158.5240  133.6280 C   0  0  0  0  0  0  0  0  0  0  0  0
  147.3060  153.1330  131.8670 H   0  0  0  0  0  0  0  0  0  0  0  0
  146.9860  152.7790  133.6530 H   0  0  0  0  0  0  0  0  0  0  0  0
  146.4583  154.9683  134.9139 H   0  0  0  0  0  0  0  0  0  0  0  0
  147.7660  156.1326  134.8920 H   0  0  0  0  0  0  0  0  0  0  0  0
  149.0860  157.0500  131.4550 H   0  0  0  0  0  0  0  0  0  0  0  0
  149.9770  157.0970  133.0090 H   0  0  0  0  0  0  0  0  0  0  0  0
  146.9989  161.0075  133.0027 H   0  0  0  0  0  0  0  0  0  0  0  0
  144.4152  161.8747  133.6408 H   0  0  0  0  0  0  0  0  0  0  0  0
  142.1282  161.1358  134.2673 H   0  0  0  0  0  0  0  0  0  0  0  0
  140.6513  158.8173  133.7346 H   0  0  0  0  0  0  0  0  0  0  0  0
  141.3671  157.5524  134.8252 H   0  0  0  0  0  0  0  0  0  0  0  0
  141.3539  160.3103  135.8786 H   0  0  0  0  0  0  0  0  0  0  0  0
  139.7314  159.5015  135.6455 H   0  0  0  0  0  0  0  0  0  0  0  0
  140.4079  157.6814  137.1964 H   0  0  0  0  0  0  0  0  0  0  0  0
  143.4906  157.0593  134.0841 H   0  0  0  0  0  0  0  0  0  0  0  0
  1  2  1  0
  2  3  2  0
  2  4  1  0
  4  5  1  0
  5  6  2  0
  5  7  1  0
  7  8  1  0
  8  9  1  0
  9 10  1  0
  9 11  2  0
  8 12  2  0
 12 13  1  0
 13 14  2  0
 14 15  1  0
 15 16  2  0
 16 17  1  0
 17 18  1  0
 18 19  1  0
 19 20  2  0
 16 21  1  0
 21 22  2  0
 22  7  1  0
 22 13  1  0
  1 23  1  0
  1 24  1  0
  4 25  1  0
  4 26  1  0
 10 27  1  0
 10 28  1  0
 12 29  1  0
 14 30  1  0
 15 31  1  0
 17 32  1  0
 17 33  1  0
 18 34  1  0
 18 35  1  0
 19 36  1  0
 21 37  1  0
M  END
>  <smiles>  (79) 
NC(=O)CC(=O)n1c(C(N)=O)cc2ccc(CCC=O)cc21

>  <score_type>  (79) 
oracle

>  <origin>  (79) 
adg

>  <m_score__min__energy>  (79) 
-7.3600000000000003

>  <m_primary>  (79) 
energy

$$$$
85:0
     RDKit          3D

 43 44  0  0  1  0  0  0  0  0999 V2000
  139.4570  149.9250  132.1230 C   0  0  0  0  0  0  0  0  0  0  0  0
  140.2350  151.0850  131.8400 N   0  0  0  0  0  0  0  0  0  0  0  0
  141.2350  151.4000  132.8250 C   0  0  1  0  0  0  0  0  0  0  0  0
  142.5260  150.6680  132.6800 C   0  0  0  0  0  0  0  0  0  0  0  0
  141.4430  152.8670  132.9300 C   0  0  0  0  0  0  0  0  0  0  0  0
  140.5650  153.7150  132.6140 O   0  0  0  0  0  0  0  0  0  0  0  0
  142.6620  153.3330  133.3980 O   0  0  0  0  0  0  0  0  0  0  0  0
  143.8000  153.5330  132.6070 C   0  0  0  0  0  0  0  0  0  0  0  0
  144.0860  154.8780  132.3510 O   0  0  0  0  0  0  0  0  0  0  0  0
  144.7450  155.7320  133.2160 C   0  0  0  0  0  0  0  0  0  0  0  0
  145.6970  155.1810  133.8740 O   0  0  0  0  0  0  0  0  0  0  0  0
  144.4490  157.0960  133.4080 N   0  0  0  0  0  0  0  0  0  0  0  0
  143.2530  157.6550  133.6670 C   0  0  0  0  0  0  0  0  0  0  0  0
  141.9530  157.0550  133.8220 C   0  0  0  0  0  0  0  0  0  0  0  0
  141.7910  155.6510  133.5190 N   0  0  0  0  0  0  0  0  0  0  0  0
  140.9070  157.6270  134.2030 O   0  0  0  0  0  0  0  0  0  0  0  0
  143.4740  159.0200  133.7720 C   0  0  0  0  0  0  0  0  0  0  0  0
  144.8060  159.2960  133.5770 C   0  0  0  0  0  0  0  0  0  0  0  0
  145.5110  160.4890  133.5830 C   0  0  0  0  0  0  0  0  0  0  0  0
  146.8710  160.4710  133.3530 C   0  0  0  0  0  0  0  0  0  0  0  0
  147.5010  159.2680  133.1220 C   0  0  0  0  0  0  0  0  0  0  0  0
  148.9690  159.2620  132.8750 C   0  0  0  0  0  0  0  0  0  0  0  0
  149.3540  160.2890  132.0360 F   0  0  0  0  0  0  0  0  0  0  0  0
  149.3330  158.0680  132.3010 F   0  0  0  0  0  0  0  0  0  0  0  0
  146.7610  158.0840  133.1230 C   0  0  0  0  0  0  0  0  0  0  0  0
  145.4010  158.0730  133.3500 C   0  0  0  0  0  0  0  0  0  0  0  0
  139.3715  149.7976  133.2123 H   0  0  0  0  0  0  0  0  0  0  0  0
  138.4536  150.0413  131.6876 H   0  0  0  0  0  0  0  0  0  0  0  0
  139.9454  149.0408  131.6876 H   0  0  0  0  0  0  0  0  0  0  0  0
  139.7110  151.9150  131.5320 H   0  0  0  0  0  0  0  0  0  0  0  0
  140.8205  151.0294  133.7741 H   0  0  0  0  0  0  0  0  0  0  0  0
  142.9312  150.4383  133.6765 H   0  0  0  0  0  0  0  0  0  0  0  0
  142.3566  149.7316  132.1282 H   0  0  0  0  0  0  0  0  0  0  0  0
  143.2426  151.2942  132.1282 H   0  0  0  0  0  0  0  0  0  0  0  0
  144.6631  153.0882  133.1240 H   0  0  0  0  0  0  0  0  0  0  0  0
  143.5987  153.0599  131.6346 H   0  0  0  0  0  0  0  0  0  0  0  0
  142.0780  155.3530  132.5600 H   0  0  0  0  0  0  0  0  0  0  0  0
  141.4100  154.9820  134.2210 H   0  0  0  0  0  0  0  0  0  0  0  0
  142.6977  159.7709  133.9806 H   0  0  0  0  0  0  0  0  0  0  0  0
  144.9915  161.4405  133.7692 H   0  0  0  0  0  0  0  0  0  0  0  0
  147.4468  161.4082  133.3541 H   0  0  0  0  0  0  0  0  0  0  0  0
  149.4685  159.3990  133.8454 H   0  0  0  0  0  0  0  0  0  0  0  0
  147.2785  157.1313  132.9371 H   0  0  0  0  0  0  0  0  0  0  0  0
  1  2  1  0
  2  3  1  0
  3  4  1  0
  3  5  1  0
  5  6  2  0
  5  7  1  0
  7  8  1  0
  8  9  1  0
  9 10  1  0
 10 11  2  0
 10 12  1  0
 12 13  1  0
 13 14  1  0
 14 15  1  0
 14 16  2  0
 13 17  2  0
 17 18  1  0
 18 19  2  0
 19 20  1  0
 20 21  2  0
 21 22  1  0
 22 23  1  0
 22 24  1  0
 21 25  1  0
 25 26  2  0
 26 12  1  0
 26 18  1  0
  1 27  1  0
  1 28  1  0
  1 29  1  0
  2 30  1  0
  3 31  1  1
  4 32  1  0
  4 33  1  0
  4 34  1  0
  8 35  1  0
  8 36  1  0
 15 37  1  0
 15 38  1  0
 17 39  1  0
 19 40  1  0
 20 41  1  0
 22 42  1  0
 25 43  1  0
M  END
>  <smiles>  (80) 
CNC(C)C(=O)OCOC(=O)n1c(C(N)=O)cc2ccc(C(F)F)cc21

>  <score_type>  (80) 
oracle

>  <origin>  (80) 
adg

>  <m_score__min__energy>  (80) 
-6.4400000000000004

>  <m_primary>  (80) 
energy

$$$$
87:0
     RDKit          3D

 35 36  0  0  0  0  0  0  0  0999 V2000
  144.3570  154.4970  130.6200 C   0  0  0  0  0  0  0  0  0  0  0  0
  144.7040  154.3470  131.9990 N   0  0  0  0  0  0  0  0  0  0  0  0
  145.2550  155.2660  132.8930 C   0  0  0  0  0  0  0  0  0  0  0  0
  144.3880  155.7260  133.7590 O   0  0  0  0  0  0  0  0  0  0  0  0
  146.5400  155.7980  133.0400 N   0  0  0  0  0  0  0  0  0  0  0  0
  147.7690  155.2950  132.9140 C   0  0  0  0  0  0  0  0  0  0  0  0
  148.2290  153.9050  132.9540 C   0  0  0  0  0  0  0  0  0  0  0  0
  147.3100  152.8400  132.6250 N   0  0  0  0  0  0  0  0  0  0  0  0
  149.3830  153.5390  133.2570 O   0  0  0  0  0  0  0  0  0  0  0  0
  148.7380  156.3130  132.9270 C   0  0  0  0  0  0  0  0  0  0  0  0
  148.0630  157.4700  133.0720 C   0  0  0  0  0  0  0  0  0  0  0  0
  148.5510  158.7720  133.1450 C   0  0  0  0  0  0  0  0  0  0  0  0
  147.6830  159.8280  133.2940 C   0  0  0  0  0  0  0  0  0  0  0  0
  146.3400  159.5490  133.3670 C   0  0  0  0  0  0  0  0  0  0  0  0
  145.3960  160.6890  133.5290 C   0  0  0  0  0  0  0  0  0  0  0  0
  144.3310  160.3190  134.3300 F   0  0  0  0  0  0  0  0  0  0  0  0
  146.1200  161.7330  134.1160 F   0  0  0  0  0  0  0  0  0  0  0  0
  145.8670  158.2350  133.2930 C   0  0  0  0  0  0  0  0  0  0  0  0
  146.7310  157.1620  133.1420 C   0  0  0  0  0  0  0  0  0  0  0  0
  144.3830  152.7140  132.6620 P   0  0  0  0  0  0  0  0  0  0  0  0
  144.8200  152.7660  134.1090 O   0  0  0  0  0  0  0  0  0  0  0  0
  142.7590  152.3500  132.6350 O   0  0  0  0  0  0  0  0  0  0  0  0
  145.3400  151.5720  131.8610 O   0  0  0  0  0  0  0  0  0  0  0  0
  143.3499  154.9323  130.5406 H   0  0  0  0  0  0  0  0  0  0  0  0
  145.0834  155.1615  130.1293 H   0  0  0  0  0  0  0  0  0  0  0  0
  144.3707  153.5126  130.1293 H   0  0  0  0  0  0  0  0  0  0  0  0
  147.1550  152.7100  131.5970 H   0  0  0  0  0  0  0  0  0  0  0  0
  146.8500  152.2620  133.3630 H   0  0  0  0  0  0  0  0  0  0  0  0
  149.8274  156.1900  132.8370 H   0  0  0  0  0  0  0  0  0  0  0  0
  149.6337  158.9563  133.0833 H   0  0  0  0  0  0  0  0  0  0  0  0
  148.0521  160.8626  133.3528 H   0  0  0  0  0  0  0  0  0  0  0  0
  144.9807  161.0019  132.5597 H   0  0  0  0  0  0  0  0  0  0  0  0
  144.7847  158.0489  133.3561 H   0  0  0  0  0  0  0  0  0  0  0  0
  142.3650  152.2440  131.7380 H   0  0  0  0  0  0  0  0  0  0  0  0
  145.5000  151.8400  130.9160 H   0  0  0  0  0  0  0  0  0  0  0  0
  1  2  1  0
  2  3  1  0
  3  4  2  0
  3  5  1  0
  5  6  1  0
  6  7  1  0
  7  8  1  0
  7  9  2  0
  6 10  2  0
 10 11  1  0
 11 12  2  0
 12 13  1  0
 13 14  2  0
 14 15  1  0
 15 16  1  0
 15 17  1  0
 14 18  1  0
 18 19  2  0
  2 20  1  0
 20 21  2  0
 20 22  1  0
 20 23  1  0
 19  5  1  0
 19 11  1  0
  1 24  1  0
  1 25  1  0
  1 26  1  0
  8 27  1  0
  8 28  1  0
 10 29  1  0
 12 30  1  0
 13 31  1  0
 15 32  1  0
 18 33  1  0
 22 34  1  0
 23 35  1  0
M  END
>  <smiles>  (81) 
CN(C(=O)n1c(C(N)=O)cc2ccc(C(F)F)cc21)P(=O)(O)O

>  <score_type>  (81) 
oracle

>  <origin>  (81) 
adg

>  <m_score__min__energy>  (81) 
-6.5700000000000003

>  <m_primary>  (81) 
energy

$$$$
88:0
     RDKit          3D

 41 42  0  0  0  0  0  0  0  0999 V2000
  139.7370  147.6230  130.3020 C   0  0  0  0  0  0  0  0  0  0  0  0
  140.2480  148.5970  131.2470 N   0  0  0  0  0  0  0  0  0  0  0  0
  141.0770  148.2050  132.3720 C   0  0  0  0  0  0  0  0  0  0  0  0
  139.9220  149.9460  131.0500 C   0  0  0  0  0  0  0  0  0  0  0  0
  139.1900  150.2490  130.0470 O   0  0  0  0  0  0  0  0  0  0  0  0
  140.3640  151.0080  131.9140 C   0  0  0  0  0  0  0  0  0  0  0  0
  140.7340  151.9060  132.6380 C   0  0  0  0  0  0  0  0  0  0  0  0
  141.1560  152.9850  133.5070 C   0  0  0  0  0  0  0  0  0  0  0  0
  142.1090  152.7330  134.4500 C   0  0  0  0  0  0  0  0  0  0  0  0
  142.4980  153.7730  135.2670 C   0  0  0  0  0  0  0  0  0  0  0  0
  141.9320  155.0250  135.1270 C   0  0  0  0  0  0  0  0  0  0  0  0
  142.1550  156.1870  135.8110 C   0  0  0  0  0  0  0  0  0  0  0  0
  141.3210  157.1850  135.2800 C   0  0  0  0  0  0  0  0  0  0  0  0
  141.3200  158.5240  135.7870 C   0  0  0  0  0  0  0  0  0  0  0  0
  140.2210  159.3700  136.0250 N   0  0  0  0  0  0  0  0  0  0  0  0
  142.4620  159.0380  136.0660 O   0  0  0  0  0  0  0  0  0  0  0  0
  140.6090  156.6180  134.2900 N   0  0  0  0  0  0  0  0  0  0  0  0
  139.6390  157.1830  133.4470 C   0  0  0  0  0  0  0  0  0  0  0  0
  139.1520  156.5020  132.4830 O   0  0  0  0  0  0  0  0  0  0  0  0
  139.1090  158.4670  133.5360 O   0  0  0  0  0  0  0  0  0  0  0  0
  139.4920  159.4630  132.5730 C   0  0  0  0  0  0  0  0  0  0  0  0
  138.5250  159.4330  131.4700 C   0  0  0  0  0  0  0  0  0  0  0  0
  138.5980  160.0700  130.3980 O   0  0  0  0  0  0  0  0  0  0  0  0
  137.4020  158.6090  131.6270 O   0  0  0  0  0  0  0  0  0  0  0  0
  140.9760  155.3040  134.1920 C   0  0  0  0  0  0  0  0  0  0  0  0
  140.5860  154.2580  133.3690 C   0  0  0  0  0  0  0  0  0  0  0  0
  139.2938  146.7782  130.8497 H   0  0  0  0  0  0  0  0  0  0  0  0
  138.9695  148.0932  129.6697 H   0  0  0  0  0  0  0  0  0  0  0  0
  140.5601  147.2587  129.6697 H   0  0  0  0  0  0  0  0  0  0  0  0
  140.5597  148.4496  133.3114 H   0  0  0  0  0  0  0  0  0  0  0  0
  141.2659  147.1222  132.3286 H   0  0  0  0  0  0  0  0  0  0  0  0
  142.0337  148.7461  132.3286 H   0  0  0  0  0  0  0  0  0  0  0  0
  142.5528  151.7320  134.5551 H   0  0  0  0  0  0  0  0  0  0  0  0
  143.2655  153.6043  136.0367 H   0  0  0  0  0  0  0  0  0  0  0  0
  142.8678  156.3187  136.6384 H   0  0  0  0  0  0  0  0  0  0  0  0
  139.8820  160.0090  135.2500 H   0  0  0  0  0  0  0  0  0  0  0  0
  139.7590  159.3540  136.9740 H   0  0  0  0  0  0  0  0  0  0  0  0
  139.4881  160.4569  133.0442 H   0  0  0  0  0  0  0  0  0  0  0  0
  140.5042  159.2558  132.1955 H   0  0  0  0  0  0  0  0  0  0  0  0
  137.4590  157.8200  132.2740 H   0  0  0  0  0  0  0  0  0  0  0  0
  139.8199  154.4296  132.5985 H   0  0  0  0  0  0  0  0  0  0  0  0
  1  2  1  0
  2  3  1  0
  2  4  1  0
  4  5  2  0
  4  6  1  0
  6  7  3  0
  7  8  1  0
  8  9  2  0
  9 10  1  0
 10 11  2  0
 11 12  1  0
 12 13  2  0
 13 14  1  0
 14 15  1  0
 14 16  2  0
 13 17  1  0
 17 18  1  0
 18 19  2  0
 18 20  1  0
 20 21  1  0
 21 22  1  0
 22 23  2  0
 22 24  1  0
 17 25  1  0
 25 26  2  0
 26  8  1  0
 25 11  1  0
  1 27  1  0
  1 28  1  0
  1 29  1  0
  3 30  1  0
  3 31  1  0
  3 32  1  0
  9 33  1  0
 10 34  1  0
 12 35  1  0
 15 36  1  0
 15 37  1  0
 21 38  1  0
 21 39  1  0
 24 40  1  0
 26 41  1  0
M  END
>  <smiles>  (82) 
CN(C)C(=O)C#Cc1ccc2cc(C(N)=O)n(C(=O)OCC(=O)O)c2c1

>  <score_type>  (82) 
oracle

>  <origin>  (82) 
adg

>  <m_score__min__energy>  (82) 
-7.71

>  <m_primary>  (82) 
energy

$$$$
89:0
     RDKit          3D

 50 51  0  0  1  0  0  0  0  0999 V2000
  140.6780  156.1340  138.1110 C   0  0  0  0  0  0  0  0  0  0  0  0
  141.2610  157.2360  137.2500 C   0  0  1  0  0  0  0  0  0  0  0  0
  142.3410  156.6950  136.5300 O   0  0  0  0  0  0  0  0  0  0  0  0
  140.2330  157.7200  136.2810 C   0  0  0  0  0  0  0  0  0  0  0  0
  139.0630  157.8550  136.7240 O   0  0  0  0  0  0  0  0  0  0  0  0
  140.5100  158.0100  134.9710 O   0  0  0  0  0  0  0  0  0  0  0  0
  140.6140  159.2960  134.4200 C   0  0  0  0  0  0  0  0  0  0  0  0
  142.0360  159.4930  133.9780 C   0  0  0  0  0  0  0  0  0  0  0  0
  142.3950  160.6010  133.4940 O   0  0  0  0  0  0  0  0  0  0  0  0
  142.9680  158.4000  134.1190 N   0  0  0  0  0  0  0  0  0  0  0  0
  144.3120  158.5430  133.7170 C   0  0  0  0  0  0  0  0  0  0  0  0
  144.5760  159.6810  133.1830 O   0  0  0  0  0  0  0  0  0  0  0  0
  145.3430  157.5900  133.8330 N   0  0  0  0  0  0  0  0  0  0  0  0
  145.3540  156.3300  134.2810 C   0  0  0  0  0  0  0  0  0  0  0  0
  144.3800  155.5870  135.0600 C   0  0  0  0  0  0  0  0  0  0  0  0
  144.5410  155.0560  136.3470 N   0  0  0  0  0  0  0  0  0  0  0  0
  143.2320  155.3730  134.5200 O   0  0  0  0  0  0  0  0  0  0  0  0
  146.6090  155.7620  134.0200 C   0  0  0  0  0  0  0  0  0  0  0  0
  147.3710  156.7140  133.4030 C   0  0  0  0  0  0  0  0  0  0  0  0
  148.6700  156.6350  132.9540 C   0  0  0  0  0  0  0  0  0  0  0  0
  149.2260  157.7420  132.3580 C   0  0  0  0  0  0  0  0  0  0  0  0
  148.4870  158.8880  132.2220 C   0  0  0  0  0  0  0  0  0  0  0  0
  149.0810  160.0930  131.5790 C   0  0  0  0  0  0  0  0  0  0  0  0
  148.8910  160.0790  130.0980 C   0  0  0  0  0  0  0  0  0  0  0  0
  149.6380  161.1890  129.3980 C   0  0  0  0  0  0  0  0  0  0  0  0
  149.4240  162.4480  130.0410 N   0  0  0  0  0  0  0  0  0  0  0  0
  147.1690  158.9300  132.6910 C   0  0  0  0  0  0  0  0  0  0  0  0
  146.5850  157.8250  133.2970 C   0  0  0  0  0  0  0  0  0  0  0  0
  140.8125  156.3883  139.1727 H   0  0  0  0  0  0  0  0  0  0  0  0
  139.6052  156.0269  137.8927 H   0  0  0  0  0  0  0  0  0  0  0  0
  141.1930  155.1868  137.8927 H   0  0  0  0  0  0  0  0  0  0  0  0
  141.5863  158.0758  137.8816 H   0  0  0  0  0  0  0  0  0  0  0  0
  142.0560  156.6130  135.5960 H   0  0  0  0  0  0  0  0  0  0  0  0
  139.9378  159.3893  133.5574 H   0  0  0  0  0  0  0  0  0  0  0  0
  140.3343  160.0564  135.1640 H   0  0  0  0  0  0  0  0  0  0  0  0
  142.6040  157.5480  134.5140 H   0  0  0  0  0  0  0  0  0  0  0  0
  143.7830  155.1210  137.0850 H   0  0  0  0  0  0  0  0  0  0  0  0
  145.4500  154.5750  136.5860 H   0  0  0  0  0  0  0  0  0  0  0  0
  146.9230  154.7371  134.2668 H   0  0  0  0  0  0  0  0  0  0  0  0
  149.2497  155.7073  133.0695 H   0  0  0  0  0  0  0  0  0  0  0  0
  150.2624  157.7080  131.9909 H   0  0  0  0  0  0  0  0  0  0  0  0
  148.5990  160.9915  131.9918 H   0  0  0  0  0  0  0  0  0  0  0  0
  150.1613  160.0948  131.7861 H   0  0  0  0  0  0  0  0  0  0  0  0
  149.2488  159.1149  129.7076 H   0  0  0  0  0  0  0  0  0  0  0  0
  147.8190  160.2284  129.9018 H   0  0  0  0  0  0  0  0  0  0  0  0
  150.7137  160.9594  129.4097 H   0  0  0  0  0  0  0  0  0  0  0  0
  149.2653  161.2597  128.3655 H   0  0  0  0  0  0  0  0  0  0  0  0
  148.4710  162.8350  129.9360 H   0  0  0  0  0  0  0  0  0  0  0  0
  150.1990  163.1180  129.9670 H   0  0  0  0  0  0  0  0  0  0  0  0
  146.5849  159.8551  132.5776 H   0  0  0  0  0  0  0  0  0  0  0  0
  1  2  1  0
  2  3  1  0
  2  4  1  0
  4  5  2  0
  4  6  1  0
  6  7  1  0
  7  8  1  0
  8  9  2  0
  8 10  1  0
 10 11  1  0
 11 12  2  0
 11 13  1  0
 13 14  1  0
 14 15  1  0
 15 16  1  0
 15 17  2  0
 14 18  2  0
 18 19  1  0
 19 20  2  0
 20 21  1  0
 21 22  2  0
 22 23  1  0
 23 24  1  0
 24 25  1  0
 25 26  1  0
 22 27  1  0
 27 28  2  0
 28 13  1  0
 28 19  1  0
  1 29  1  0
  1 30  1  0
  1 31  1  0
  2 32  1  1
  3 33  1  0
  7 34  1  0
  7 35  1  0
 10 36  1  0
 16 37  1  0
 16 38  1  0
 18 39  1  0
 20 40  1  0
 21 41  1  0
 23 42  1  0
 23 43  1  0
 24 44  1  0
 24 45  1  0
 25 46  1  0
 25 47  1  0
 26 48  1  0
 26 49  1  0
 27 50  1  0
M  END
>  <smiles>  (83) 
CC(O)C(=O)OCC(=O)NC(=O)n1c(C(N)=O)cc2ccc(CCCN)cc21

>  <score_type>  (83) 
oracle

>  <origin>  (83) 
adg

>  <m_score__min__energy>  (83) 
-7.5599999999999996

>  <m_primary>  (83) 
energy

$$$$
90:0
     RDKit          3D

 44 45  0  0  0  0  0  0  0  0999 V2000
  139.2960  157.0360  132.9690 N   0  0  0  0  0  0  0  0  0  0  0  0
  139.7900  157.9680  133.9660 C   0  0  0  0  0  0  0  0  0  0  0  0
  138.9550  158.2210  134.8490 O   0  0  0  0  0  0  0  0  0  0  0  0
  141.1420  158.4910  133.8490 C   0  0  0  0  0  0  0  0  0  0  0  0
  141.3740  159.8630  134.0050 C   0  0  0  0  0  0  0  0  0  0  0  0
  142.7020  160.1000  133.8500 C   0  0  0  0  0  0  0  0  0  0  0  0
  143.4080  161.2780  133.9230 C   0  0  0  0  0  0  0  0  0  0  0  0
  144.7680  161.2850  133.7470 C   0  0  0  0  0  0  0  0  0  0  0  0
  145.3850  160.0830  133.4980 C   0  0  0  0  0  0  0  0  0  0  0  0
  146.8580  160.0600  133.3040 C   0  0  0  0  0  0  0  0  0  0  0  0
  147.2760  159.0480  132.2560 C   0  0  0  0  0  0  0  0  0  0  0  0
  147.4370  157.6730  132.8690 C   0  0  0  0  0  0  0  0  0  0  0  0
  146.3830  156.8230  132.6150 O   0  0  0  0  0  0  0  0  0  0  0  0
  144.6490  158.8950  133.4270 C   0  0  0  0  0  0  0  0  0  0  0  0
  143.2820  158.8710  133.6010 C   0  0  0  0  0  0  0  0  0  0  0  0
  142.3300  157.8880  133.6000 N   0  0  0  0  0  0  0  0  0  0  0  0
  142.4810  156.5270  133.3350 C   0  0  0  0  0  0  0  0  0  0  0  0
  141.5700  155.7360  133.7500 O   0  0  0  0  0  0  0  0  0  0  0  0
  143.5140  155.8540  132.6540 N   0  0  0  0  0  0  0  0  0  0  0  0
  143.5080  154.4050  132.4700 C   0  0  0  0  0  0  0  0  0  0  0  0
  144.6460  153.8880  131.6440 C   0  0  1  0  0  0  0  0  0  0  0  0
  145.0920  154.8610  130.7320 O   0  0  0  0  0  0  0  0  0  0  0  0
  145.7570  153.5900  132.6010 C   0  0  0  0  0  0  0  0  0  0  0  0
  145.6360  152.6550  133.4540 O   0  0  0  0  0  0  0  0  0  0  0  0
  146.9210  154.3290  132.5620 O   0  0  0  0  0  0  0  0  0  0  0  0
  138.3340  157.1040  132.5960 H   0  0  0  0  0  0  0  0  0  0  0  0
  139.9990  156.3150  132.6810 H   0  0  0  0  0  0  0  0  0  0  0  0
  140.6076  160.6228  134.2178 H   0  0  0  0  0  0  0  0  0  0  0  0
  142.8783  162.2209  134.1239 H   0  0  0  0  0  0  0  0  0  0  0  0
  145.3446  162.2201  133.8032 H   0  0  0  0  0  0  0  0  0  0  0  0
  147.1901  161.0591  132.9855 H   0  0  0  0  0  0  0  0  0  0  0  0
  147.3224  159.7725  134.2588 H   0  0  0  0  0  0  0  0  0  0  0  0
  146.5075  159.0046  131.4701 H   0  0  0  0  0  0  0  0  0  0  0  0
  148.2417  159.3594  131.8311 H   0  0  0  0  0  0  0  0  0  0  0  0
  148.3538  157.2187  132.4651 H   0  0  0  0  0  0  0  0  0  0  0  0
  147.4803  157.8119  133.9593 H   0  0  0  0  0  0  0  0  0  0  0  0
  146.5020  156.3610  131.7480 H   0  0  0  0  0  0  0  0  0  0  0  0
  145.1776  157.9515  133.2262 H   0  0  0  0  0  0  0  0  0  0  0  0
  144.2930  156.3550  132.2430 H   0  0  0  0  0  0  0  0  0  0  0  0
  143.5575  153.9308  133.4613 H   0  0  0  0  0  0  0  0  0  0  0  0
  142.5841  154.1584  131.9263 H   0  0  0  0  0  0  0  0  0  0  0  0
  144.3293  153.0037  131.0716 H   0  0  0  0  0  0  0  0  0  0  0  0
  145.6630  155.4960  131.2130 H   0  0  0  0  0  0  0  0  0  0  0  0
  147.1320  154.9420  131.7850 H   0  0  0  0  0  0  0  0  0  0  0  0
  1  2  1  0
  2  3  2  0
  2  4  1  0
  4  5  2  0
  5  6  1  0
  6  7  2  0
  7  8  1  0
  8  9  2  0
  9 10  1  0
 10 11  1  0
 11 12  1  0
 12 13  1  0
  9 14  1  0
 14 15  2  0
 15 16  1  0
 16 17  1  0
 17 18  2  0
 17 19  1  0
 19 20  1  0
 20 21  1  0
 21 22  1  0
 21 23  1  0
 23 24  2  0
 23 25  1  0
 16  4  1  0
 15  6  1  0
  1 26  1  0
  1 27  1  0
  5 28  1  0
  7 29  1  0
  8 30  1  0
 10 31  1  0
 10 32  1  0
 11 33  1  0
 11 34  1  0
 12 35  1  0
 12 36  1  0
 13 37  1  0
 14 38  1  0
 19 39  1  0
 20 40  1  0
 20 41  1  0
 21 42  1  6
 22 43  1  0
 25 44  1  0
M  END
>  <smiles>  (84) 
NC(=O)c1cc2ccc(CCCO)cc2n1C(=O)NC[C@@H](O)C(=O)O

>  <score_type>  (84) 
oracle

>  <origin>  (84) 
adg

>  <m_score__min__energy>  (84) 
-6.1699999999999999

>  <m_primary>  (84) 
energy

$$$$
91:0
     RDKit          3D

 54 55  0  0  1  0  0  0  0  0999 V2000
  140.2330  146.9400  130.5530 N   0  0  0  0  0  0  0  0  0  0  0  0
  139.5250  147.8270  130.5070 C   0  0  0  0  0  0  0  0  0  0  0  0
  138.6240  148.9490  130.4330 C   0  0  0  0  0  0  0  0  0  0  0  0
  138.7930  149.9080  131.5900 C   0  0  0  0  0  0  0  0  0  0  0  0
  139.9840  150.5850  131.5590 O   0  0  0  0  0  0  0  0  0  0  0  0
  141.1570  149.9820  132.6150 P   0  0  1  0  0  0  0  0  0  0  0  0
  140.3810  149.2550  133.7150 O   0  0  0  0  0  0  0  0  0  0  0  0
  142.1810  148.8660  131.9100 O   0  0  0  0  0  0  0  0  0  0  0  0
  141.9810  151.2450  133.3950 O   0  0  0  0  0  0  0  0  0  0  0  0
  141.6200  152.4910  132.9810 C   0  0  0  0  0  0  0  0  0  0  0  0
  142.7870  153.4150  132.9470 C   0  0  0  0  0  0  0  0  0  0  0  0
  143.9800  152.9710  133.4660 O   0  0  0  0  0  0  0  0  0  0  0  0
  145.1060  152.5340  132.8250 C   0  0  0  0  0  0  0  0  0  0  0  0
  145.0650  151.4020  132.2290 O   0  0  0  0  0  0  0  0  0  0  0  0
  146.3940  153.2470  132.7470 C   0  0  0  0  0  0  0  0  0  0  0  0
  146.4770  154.4400  133.4080 O   0  0  0  0  0  0  0  0  0  0  0  0
  146.2100  155.5290  132.6110 C   0  0  0  0  0  0  0  0  0  0  0  0
  147.1950  156.5970  132.8920 C   0  0  0  0  0  0  0  0  0  0  0  0
  148.3740  156.1550  133.1570 O   0  0  0  0  0  0  0  0  0  0  0  0
  146.9910  157.9860  132.8910 N   0  0  0  0  0  0  0  0  0  0  0  0
  147.8300  159.0130  132.7220 C   0  0  0  0  0  0  0  0  0  0  0  0
  149.1680  159.0620  132.1580 C   0  0  0  0  0  0  0  0  0  0  0  0
  149.9900  157.9400  131.8820 N   0  0  0  0  0  0  0  0  0  0  0  0
  149.6810  160.1960  131.8610 O   0  0  0  0  0  0  0  0  0  0  0  0
  147.1650  160.2230  133.0170 C   0  0  0  0  0  0  0  0  0  0  0  0
  145.8870  159.8930  133.3640 C   0  0  0  0  0  0  0  0  0  0  0  0
  144.8440  160.7180  133.7330 C   0  0  0  0  0  0  0  0  0  0  0  0
  143.6220  160.1730  134.0450 C   0  0  0  0  0  0  0  0  0  0  0  0
  143.5010  158.8020  133.9710 C   0  0  0  0  0  0  0  0  0  0  0  0
  142.1650  158.2300  134.3150 C   0  0  0  0  0  0  0  0  0  0  0  0
  142.2750  156.8810  134.5660 F   0  0  0  0  0  0  0  0  0  0  0  0
  141.3240  158.4690  133.2500 F   0  0  0  0  0  0  0  0  0  0  0  0
  141.6780  158.8300  135.4520 F   0  0  0  0  0  0  0  0  0  0  0  0
  144.5570  157.9790  133.5970 C   0  0  0  0  0  0  0  0  0  0  0  0
  145.7940  158.5290  133.2810 C   0  0  0  0  0  0  0  0  0  0  0  0
  138.8134  149.4917  129.4951 H   0  0  0  0  0  0  0  0  0  0  0  0
  137.5977  148.5553  130.4738 H   0  0  0  0  0  0  0  0  0  0  0  0
  137.9732  150.6408  131.5596 H   0  0  0  0  0  0  0  0  0  0  0  0
  138.7793  149.3117  132.5142 H   0  0  0  0  0  0  0  0  0  0  0  0
  141.7660  148.0360  131.6280 H   0  0  0  0  0  0  0  0  0  0  0  0
  141.1899  152.4213  131.9710 H   0  0  0  0  0  0  0  0  0  0  0  0
  140.8839  152.8913  133.6937 H   0  0  0  0  0  0  0  0  0  0  0  0
  142.9662  153.6762  131.8936 H   0  0  0  0  0  0  0  0  0  0  0  0
  142.4958  154.2477  133.6042 H   0  0  0  0  0  0  0  0  0  0  0  0
  147.1679  152.5830  133.1596 H   0  0  0  0  0  0  0  0  0  0  0  0
  146.5216  153.4968  131.6834 H   0  0  0  0  0  0  0  0  0  0  0  0
  146.2789  155.2353  131.5532 H   0  0  0  0  0  0  0  0  0  0  0  0
  145.1961  155.8994  132.8225 H   0  0  0  0  0  0  0  0  0  0  0  0
  151.0280  157.9910  131.9790 H   0  0  0  0  0  0  0  0  0  0  0  0
  149.5610  157.0200  131.5660 H   0  0  0  0  0  0  0  0  0  0  0  0
  147.5937  161.2352  132.9753 H   0  0  0  0  0  0  0  0  0  0  0  0
  144.9904  161.8073  133.7771 H   0  0  0  0  0  0  0  0  0  0  0  0
  142.7731  160.8063  134.3423 H   0  0  0  0  0  0  0  0  0  0  0  0
  144.4134  156.8894  133.5510 H   0  0  0  0  0  0  0  0  0  0  0  0
  1  2  3  0
  2  3  1  0
  3  4  1  0
  4  5  1  0
  6  5  1  1
  6  7  2  0
  6  8  1  0
  6  9  1  0
  9 10  1  0
 10 11  1  0
 11 12  1  0
 12 13  1  0
 13 14  2  0
 13 15  1  0
 15 16  1  0
 16 17  1  0
 17 18  1  0
 18 19  2  0
 18 20  1  0
 20 21  1  0
 21 22  1  0
 22 23  1  0
 22 24  2  0
 21 25  2  0
 25 26  1  0
 26 27  2  0
 27 28  1  0
 28 29  2  0
 29 30  1  0
 30 31  1  0
 30 32  1  0
 30 33  1  0
 29 34  1  0
 34 35  2  0
 35 20  1  0
 35 26  1  0
  3 36  1  0
  3 37  1  0
  4 38  1  0
  4 39  1  0
  8 40  1  0
 10 41  1  0
 10 42  1  0
 11 43  1  0
 11 44  1  0
 15 45  1  0
 15 46  1  0
 17 47  1  0
 17 48  1  0
 23 49  1  0
 23 50  1  0
 25 51  1  0
 27 52  1  0
 28 53  1  0
 34 54  1  0
M  END
>  <smiles>  (85) 
N#CCCOP(=O)(O)OCCOC(=O)COCC(=O)n1c(C(N)=O)cc2ccc(C(F)(F)F)cc21

>  <score_type>  (85) 
oracle

>  <origin>  (85) 
adg

>  <m_score__min__energy>  (85) 
-8.0299999999999994

>  <m_primary>  (85) 
energy

$$$$
92:0
     RDKit          3D

 52 55  0  0  0  0  0  0  0  0999 V2000
  144.7370  155.3760  134.2220 N   0  0  0  0  0  0  0  0  0  0  0  0
  145.0760  154.0090  133.8670 C   0  0  0  0  0  0  0  0  0  0  0  0
  146.2970  153.7740  133.8700 O   0  0  0  0  0  0  0  0  0  0  0  0
  143.9960  153.1100  133.5580 C   0  0  0  0  0  0  0  0  0  0  0  0
  144.3120  151.8460  132.9910 C   0  0  0  0  0  0  0  0  0  0  0  0
  143.1380  151.2090  132.7370 C   0  0  0  0  0  0  0  0  0  0  0  0
  142.9200  149.9610  132.1920 C   0  0  0  0  0  0  0  0  0  0  0  0
  141.6400  149.4880  132.0210 C   0  0  0  0  0  0  0  0  0  0  0  0
  140.6080  150.3100  132.4130 C   0  0  0  0  0  0  0  0  0  0  0  0
  139.2200  149.8120  132.2340 C   0  0  0  0  0  0  0  0  0  0  0  0
  139.0370  149.0620  131.0130 N   0  0  0  0  0  0  0  0  0  0  0  0
  138.9170  147.7240  130.9130 C   0  0  0  0  0  0  0  0  0  0  0  0
  138.7570  147.3620  129.5950 C   0  0  0  0  0  0  0  0  0  0  0  0
  138.7820  148.5120  128.8830 N   0  0  0  0  0  0  0  0  0  0  0  0
  138.9530  149.5510  129.7520 C   0  0  0  0  0  0  0  0  0  0  0  0
  140.8440  151.5670  132.9620 C   0  0  0  0  0  0  0  0  0  0  0  0
  142.1370  152.0550  133.1390 C   0  0  0  0  0  0  0  0  0  0  0  0
  142.6590  153.2140  133.6440 N   0  0  0  0  0  0  0  0  0  0  0  0
  141.8190  154.2540  134.0840 C   0  0  0  0  0  0  0  0  0  0  0  0
  142.0030  154.6100  135.3070 O   0  0  0  0  0  0  0  0  0  0  0  0
  140.8060  154.9830  133.3940 C   0  0  0  0  0  0  0  0  0  0  0  0
  139.9030  154.4410  132.6580 O   0  0  0  0  0  0  0  0  0  0  0  0
  140.6750  156.4210  133.4420 N   0  0  0  0  0  0  0  0  0  0  0  0
  141.5030  157.3560  132.7460 C   0  0  0  0  0  0  0  0  0  0  0  0
  142.8800  157.4800  133.2940 C   0  0  0  0  0  0  0  0  0  0  0  0
  143.8590  157.9020  132.6330 O   0  0  0  0  0  0  0  0  0  0  0  0
  143.0640  157.1020  134.6160 O   0  0  0  0  0  0  0  0  0  0  0  0
  139.5910  156.9880  134.2640 C   0  0  0  0  0  0  0  0  0  0  0  0
  140.1380  157.5110  135.4870 C   0  0  0  0  0  0  0  0  0  0  0  0
  140.4210  156.9420  136.6730 C   0  0  0  0  0  0  0  0  0  0  0  0
  140.9190  157.6930  137.6650 C   0  0  0  0  0  0  0  0  0  0  0  0
  141.1200  159.0240  137.4260 C   0  0  0  0  0  0  0  0  0  0  0  0
  140.5910  159.2850  135.7090 S   0  0  0  0  0  0  0  0  0  0  0  0
  144.4730  155.4980  135.2260 H   0  0  0  0  0  0  0  0  0  0  0  0
  144.7650  156.1420  133.5190 H   0  0  0  0  0  0  0  0  0  0  0  0
  145.3210  151.4548  132.7938 H   0  0  0  0  0  0  0  0  0  0  0  0
  143.7763  149.3393  131.8918 H   0  0  0  0  0  0  0  0  0  0  0  0
  141.4490  148.4945  131.5891 H   0  0  0  0  0  0  0  0  0  0  0  0
  138.9697  149.1612  133.0848 H   0  0  0  0  0  0  0  0  0  0  0  0
  138.5619  150.6917  132.1787 H   0  0  0  0  0  0  0  0  0  0  0  0
  138.9431  147.0234  131.7607 H   0  0  0  0  0  0  0  0  0  0  0  0
  138.6336  146.3428  129.2000 H   0  0  0  0  0  0  0  0  0  0  0  0
  139.0129  150.6135  129.4735 H   0  0  0  0  0  0  0  0  0  0  0  0
  139.9891  152.1902  133.2634 H   0  0  0  0  0  0  0  0  0  0  0  0
  141.5775  157.0356  131.6963 H   0  0  0  0  0  0  0  0  0  0  0  0
  141.0288  158.3421  132.8592 H   0  0  0  0  0  0  0  0  0  0  0  0
  142.6470  156.2590  134.9930 H   0  0  0  0  0  0  0  0  0  0  0  0
  139.0953  157.7978  133.7086 H   0  0  0  0  0  0  0  0  0  0  0  0
  138.8589  156.2009  134.4977 H   0  0  0  0  0  0  0  0  0  0  0  0
  140.2447  155.8672  136.8274 H   0  0  0  0  0  0  0  0  0  0  0  0
  141.1591  157.2512  138.6433 H   0  0  0  0  0  0  0  0  0  0  0  0
  141.5170  159.7756  138.1242 H   0  0  0  0  0  0  0  0  0  0  0  0
  1  2  1  0
  2  3  2  0
  2  4  1  0
  4  5  2  0
  5  6  1  0
  6  7  2  0
  7  8  1  0
  8  9  2  0
  9 10  1  0
 10 11  1  0
 11 12  1  0
 12 13  2  0
 13 14  1  0
 14 15  2  0
  9 16  1  0
 16 17  2  0
 17 18  1  0
 18 19  1  0
 19 20  2  0
 19 21  1  0
 21 22  2  0
 21 23  1  0
 23 24  1  0
 24 25  1  0
 25 26  2  0
 25 27  1  0
 23 28  1  0
 28 29  1  0
 29 30  2  0
 30 31  1  0
 31 32  2  0
 32 33  1  0
 18  4  1  0
 33 29  1  0
 17  6  1  0
 15 11  1  0
  1 34  1  0
  1 35  1  0
  5 36  1  0
  7 37  1  0
  8 38  1  0
 10 39  1  0
 10 40  1  0
 12 41  1  0
 13 42  1  0
 15 43  1  0
 16 44  1  0
 24 45  1  0
 24 46  1  0
 27 47  1  0
 28 48  1  0
 28 49  1  0
 30 50  1  0
 31 51  1  0
 32 52  1  0
M  END
>  <smiles>  (86) 
NC(=O)c1cc2ccc(Cn3ccnc3)cc2n1C(=O)C(=O)N(CC(=O)O)Cc1cccs1

>  <score_type>  (86) 
oracle

>  <origin>  (86) 
adg

>  <m_score__min__energy>  (86) 
-9.6500000000000004

>  <m_primary>  (86) 
energy

$$$$
93:0
     RDKit          3D

 35 36  0  0  0  0  0  0  0  0999 V2000
  140.7980  157.9630  133.8390 C   0  0  0  0  0  0  0  0  0  0  0  0
  141.7810  158.3220  134.9160 C   0  0  0  0  0  0  0  0  0  0  0  0
  142.0840  157.1540  135.6230 F   0  0  0  0  0  0  0  0  0  0  0  0
  141.1950  159.2530  135.7370 F   0  0  0  0  0  0  0  0  0  0  0  0
  143.0620  158.8590  134.3930 C   0  0  0  0  0  0  0  0  0  0  0  0
  143.1670  160.2210  134.2130 C   0  0  0  0  0  0  0  0  0  0  0  0
  144.3560  160.7190  133.7270 C   0  0  0  0  0  0  0  0  0  0  0  0
  145.3940  159.8590  133.4370 C   0  0  0  0  0  0  0  0  0  0  0  0
  146.6500  160.0980  132.9550 C   0  0  0  0  0  0  0  0  0  0  0  0
  147.3480  158.8850  132.8270 C   0  0  0  0  0  0  0  0  0  0  0  0
  148.7220  158.8840  132.3820 C   0  0  0  0  0  0  0  0  0  0  0  0
  149.4230  157.6120  132.2920 N   0  0  0  0  0  0  0  0  0  0  0  0
  149.4170  159.8660  132.0500 O   0  0  0  0  0  0  0  0  0  0  0  0
  146.5130  157.9190  133.2270 N   0  0  0  0  0  0  0  0  0  0  0  0
  146.6420  156.5120  133.1500 C   0  0  0  0  0  0  0  0  0  0  0  0
  146.6180  156.0250  131.9960 O   0  0  0  0  0  0  0  0  0  0  0  0
  146.8050  155.6180  134.2620 C   0  0  0  0  0  0  0  0  0  0  0  0
  147.6320  154.6030  134.2610 C   0  0  0  0  0  0  0  0  0  0  0  0
  148.5090  154.1810  133.2100 C   0  0  0  0  0  0  0  0  0  0  0  0
  148.7580  153.0680  132.7510 O   0  0  0  0  0  0  0  0  0  0  0  0
  149.2270  155.2260  132.5730 O   0  0  0  0  0  0  0  0  0  0  0  0
  145.3230  158.4930  133.6050 C   0  0  0  0  0  0  0  0  0  0  0  0
  144.1270  158.0090  134.0920 C   0  0  0  0  0  0  0  0  0  0  0  0
  139.8593  157.6202  134.2988 H   0  0  0  0  0  0  0  0  0  0  0  0
  140.5992  158.8466  133.2147 H   0  0  0  0  0  0  0  0  0  0  0  0
  141.2154  157.1593  133.2147 H   0  0  0  0  0  0  0  0  0  0  0  0
  142.3270  160.8904  134.4501 H   0  0  0  0  0  0  0  0  0  0  0  0
  144.4771  161.8011  133.5706 H   0  0  0  0  0  0  0  0  0  0  0  0
  147.0538  161.0902  132.7049 H   0  0  0  0  0  0  0  0  0  0  0  0
  149.3030  157.1320  131.3740 H   0  0  0  0  0  0  0  0  0  0  0  0
  149.9820  157.2470  133.0870 H   0  0  0  0  0  0  0  0  0  0  0  0
  146.2017  155.7958  135.1644 H   0  0  0  0  0  0  0  0  0  0  0  0
  147.6564  153.9999  135.1806 H   0  0  0  0  0  0  0  0  0  0  0  0
  148.7300  155.7130  131.8120 H   0  0  0  0  0  0  0  0  0  0  0  0
  144.0096  156.9263  134.2470 H   0  0  0  0  0  0  0  0  0  0  0  0
  1  2  1  0
  2  3  1  0
  2  4  1  0
  2  5  1  0
  5  6  2  0
  6  7  1  0
  7  8  2  0
  8  9  1  0
  9 10  2  0
 10 11  1  0
 11 12  1  0
 11 13  2  0
 10 14  1  0
 14 15  1  0
 15 16  2  0
 15 17  1  0
 17 18  2  0
 18 19  1  0
 19 20  2  0
 19 21  1  0
 14 22  1  0
 22 23  2  0
 23  5  1  0
 22  8  1  0
  1 24  1  0
  1 25  1  0
  1 26  1  0
  6 27  1  0
  7 28  1  0
  9 29  1  0
 12 30  1  0
 12 31  1  0
 17 32  1  0
 18 33  1  0
 21 34  1  0
 23 35  1  0
M  END
>  <smiles>  (87) 
CC(F)(F)c1ccc2cc(C(N)=O)n(C(=O)/C=C\C(=O)O)c2c1

>  <score_type>  (87) 
oracle

>  <origin>  (87) 
adg

>  <m_score__min__energy>  (87) 
-6.9800000000000004

>  <m_primary>  (87) 
energy

$$$$
94:0
     RDKit          3D

 40 41  0  0  0  0  0  0  0  0999 V2000
  143.6880  160.6350  134.0590 C   0  0  0  0  0  0  0  0  0  0  0  0
  144.9260  160.7360  133.2970 N   0  0  0  0  0  0  0  0  0  0  0  0
  145.8290  159.6420  133.3520 C   0  0  0  0  0  0  0  0  0  0  0  0
  147.1820  159.8810  133.3620 C   0  0  0  0  0  0  0  0  0  0  0  0
  148.0310  158.8020  133.3980 C   0  0  0  0  0  0  0  0  0  0  0  0
  147.5230  157.5130  133.4240 C   0  0  0  0  0  0  0  0  0  0  0  0
  148.1710  156.3290  133.4540 C   0  0  0  0  0  0  0  0  0  0  0  0
  147.1960  155.3130  133.4640 C   0  0  0  0  0  0  0  0  0  0  0  0
  147.5910  153.9210  133.4720 C   0  0  0  0  0  0  0  0  0  0  0  0
  146.7250  152.9530  132.8170 N   0  0  0  0  0  0  0  0  0  0  0  0
  148.6110  153.4230  133.9810 O   0  0  0  0  0  0  0  0  0  0  0  0
  145.9710  155.8830  133.4440 N   0  0  0  0  0  0  0  0  0  0  0  0
  144.6970  155.3140  133.5520 C   0  0  0  0  0  0  0  0  0  0  0  0
  144.0610  155.1340  132.4430 O   0  0  0  0  0  0  0  0  0  0  0  0
  143.9550  154.8910  134.7400 C   0  0  0  0  0  0  0  0  0  0  0  0
  144.6840  153.9300  135.6120 C   0  0  0  0  0  0  0  0  0  0  0  0
  145.3570  152.9970  135.0510 O   0  0  0  0  0  0  0  0  0  0  0  0
  144.6770  153.9940  137.0260 N   0  0  0  0  0  0  0  0  0  0  0  0
  145.4340  152.9950  137.7530 C   0  0  0  0  0  0  0  0  0  0  0  0
  146.8860  153.3120  137.7420 C   0  0  0  0  0  0  0  0  0  0  0  0
  147.3730  153.8250  138.7790 O   0  0  0  0  0  0  0  0  0  0  0  0
  147.7020  153.0700  136.6570 O   0  0  0  0  0  0  0  0  0  0  0  0
  146.1780  157.2360  133.4160 C   0  0  0  0  0  0  0  0  0  0  0  0
  145.3350  158.3380  133.3790 C   0  0  0  0  0  0  0  0  0  0  0  0
  143.9170  160.6537  135.1347 H   0  0  0  0  0  0  0  0  0  0  0  0
  143.0332  161.4827  133.8087 H   0  0  0  0  0  0  0  0  0  0  0  0
  143.1793  159.6924  133.8087 H   0  0  0  0  0  0  0  0  0  0  0  0
  145.1370  161.5700  132.7420 H   0  0  0  0  0  0  0  0  0  0  0  0
  147.5745  160.9084  133.3417 H   0  0  0  0  0  0  0  0  0  0  0  0
  149.1193  158.9618  133.4062 H   0  0  0  0  0  0  0  0  0  0  0  0
  149.2614  156.1844  133.4680 H   0  0  0  0  0  0  0  0  0  0  0  0
  146.5320  152.0990  133.3490 H   0  0  0  0  0  0  0  0  0  0  0  0
  146.3460  153.1560  131.8600 H   0  0  0  0  0  0  0  0  0  0  0  0
  143.7203  155.7857  135.3354 H   0  0  0  0  0  0  0  0  0  0  0  0
  143.0573  154.3677  134.3789 H   0  0  0  0  0  0  0  0  0  0  0  0
  144.1390  154.7430  137.5120 H   0  0  0  0  0  0  0  0  0  0  0  0
  145.0808  152.9639  138.7943 H   0  0  0  0  0  0  0  0  0  0  0  0
  145.2852  152.0203  137.2654 H   0  0  0  0  0  0  0  0  0  0  0  0
  147.3630  152.9860  135.7060 H   0  0  0  0  0  0  0  0  0  0  0  0
  144.2467  158.1784  133.3707 H   0  0  0  0  0  0  0  0  0  0  0  0
  1  2  1  0
  2  3  1  0
  3  4  2  0
  4  5  1  0
  5  6  2  0
  6  7  1  0
  7  8  2  0
  8  9  1  0
  9 10  1  0
  9 11  2  0
  8 12  1  0
 12 13  1  0
 13 14  2  0
 13 15  1  0
 15 16  1  0
 16 17  2  0
 16 18  1  0
 18 19  1  0
 19 20  1  0
 20 21  2  0
 20 22  1  0
 12 23  1  0
 23 24  2  0
 24  3  1  0
 23  6  1  0
  1 25  1  0
  1 26  1  0
  1 27  1  0
  2 28  1  0
  4 29  1  0
  5 30  1  0
  7 31  1  0
 10 32  1  0
 10 33  1  0
 15 34  1  0
 15 35  1  0
 18 36  1  0
 19 37  1  0
 19 38  1  0
 22 39  1  0
 24 40  1  0
M  END
>  <smiles>  (88) 
CNc1ccc2cc(C(N)=O)n(C(=O)CC(=O)NCC(=O)O)c2c1

>  <score_type>  (88) 
oracle

>  <origin>  (88) 
adg

>  <m_score__min__energy>  (88) 
-7.5499999999999998

>  <m_primary>  (88) 
energy

$$$$
95:0
     RDKit          3D

 42 44  0  0  0  0  0  0  0  0999 V2000
  139.0830  146.6600  129.9140 C   0  0  0  0  0  0  0  0  0  0  0  0
  138.7650  147.3620  131.0900 O   0  0  0  0  0  0  0  0  0  0  0  0
  139.4480  148.4890  131.4710 C   0  0  0  0  0  0  0  0  0  0  0  0
  140.7710  148.4050  131.8380 C   0  0  0  0  0  0  0  0  0  0  0  0
  141.4910  149.5100  132.2260 C   0  0  0  0  0  0  0  0  0  0  0  0
  140.8650  150.7170  132.2440 C   0  0  0  0  0  0  0  0  0  0  0  0
  141.5660  151.9330  132.6460 C   0  0  0  0  0  0  0  0  0  0  0  0
  142.9250  151.8460  132.8650 C   0  0  0  0  0  0  0  0  0  0  0  0
  143.5940  152.9890  133.2420 C   0  0  0  0  0  0  0  0  0  0  0  0
  142.9140  154.1790  133.3930 C   0  0  0  0  0  0  0  0  0  0  0  0
  143.3410  155.4290  133.7520 C   0  0  0  0  0  0  0  0  0  0  0  0
  142.2510  156.3160  133.7600 C   0  0  0  0  0  0  0  0  0  0  0  0
  142.4130  157.7040  134.1030 C   0  0  0  0  0  0  0  0  0  0  0  0
  142.2890  158.8260  133.2670 N   0  0  0  0  0  0  0  0  0  0  0  0
  142.7080  157.9740  135.3230 O   0  0  0  0  0  0  0  0  0  0  0  0
  141.1880  155.5910  133.4080 N   0  0  0  0  0  0  0  0  0  0  0  0
  139.8520  156.0320  133.2720 C   0  0  0  0  0  0  0  0  0  0  0  0
  139.1800  155.6760  132.2370 O   0  0  0  0  0  0  0  0  0  0  0  0
  139.1620  156.8270  134.1490 O   0  0  0  0  0  0  0  0  0  0  0  0
  139.2200  158.2300  134.1850 C   0  0  0  0  0  0  0  0  0  0  0  0
  139.0760  158.8670  132.8750 C   0  0  0  0  0  0  0  0  0  0  0  0
  139.5670  160.0030  132.5780 O   0  0  0  0  0  0  0  0  0  0  0  0
  138.3620  158.1940  131.8920 O   0  0  0  0  0  0  0  0  0  0  0  0
  141.5580  154.2970  133.1800 C   0  0  0  0  0  0  0  0  0  0  0  0
  140.8930  153.1490  132.8020 C   0  0  0  0  0  0  0  0  0  0  0  0
  139.5280  150.7760  131.8690 C   0  0  0  0  0  0  0  0  0  0  0  0
  138.8360  149.6890  131.4920 N   0  0  0  0  0  0  0  0  0  0  0  0
  139.5238  145.6868  130.1758 H   0  0  0  0  0  0  0  0  0  0  0  0
  138.1688  146.5014  129.3231 H   0  0  0  0  0  0  0  0  0  0  0  0
  139.8051  147.2426  129.3231 H   0  0  0  0  0  0  0  0  0  0  0  0
  141.2680  147.4238  131.8205 H   0  0  0  0  0  0  0  0  0  0  0  0
  142.5485  149.4199  132.5151 H   0  0  0  0  0  0  0  0  0  0  0  0
  143.4585  150.8919  132.7422 H   0  0  0  0  0  0  0  0  0  0  0  0
  144.6782  152.9525  133.4239 H   0  0  0  0  0  0  0  0  0  0  0  0
  144.3791  155.6982  133.9969 H   0  0  0  0  0  0  0  0  0  0  0  0
  143.1220  159.2070  132.7570 H   0  0  0  0  0  0  0  0  0  0  0  0
  141.3270  159.2580  133.1920 H   0  0  0  0  0  0  0  0  0  0  0  0
  138.4113  158.5927  134.8365 H   0  0  0  0  0  0  0  0  0  0  0  0
  140.2190  158.4971  134.5599 H   0  0  0  0  0  0  0  0  0  0  0  0
  138.0430  157.2410  131.9930 H   0  0  0  0  0  0  0  0  0  0  0  0
  139.8091  153.1910  132.6192 H   0  0  0  0  0  0  0  0  0  0  0  0
  139.0174  151.7502  131.8816 H   0  0  0  0  0  0  0  0  0  0  0  0
  1  2  1  0
  2  3  1  0
  3  4  2  0
  4  5  1  0
  5  6  2  0
  6  7  1  0
  7  8  2  0
  8  9  1  0
  9 10  2  0
 10 11  1  0
 11 12  2  0
 12 13  1  0
 13 14  1  0
 13 15  2  0
 12 16  1  0
 16 17  1  0
 17 18  2  0
 17 19  1  0
 19 20  1  0
 20 21  1  0
 21 22  2  0
 21 23  1  0
 16 24  1  0
 24 25  2  0
  6 26  1  0
 26 27  2  0
 27  3  1  0
 25  7  1  0
 24 10  1  0
  1 28  1  0
  1 29  1  0
  1 30  1  0
  4 31  1  0
  5 32  1  0
  8 33  1  0
  9 34  1  0
 11 35  1  0
 14 36  1  0
 14 37  1  0
 20 38  1  0
 20 39  1  0
 23 40  1  0
 25 41  1  0
 26 42  1  0
M  END
>  <smiles>  (89) 
COc1ccc(-c2ccc3cc(C(N)=O)n(C(=O)OCC(=O)O)c3c2)cn1

>  <score_type>  (89) 
oracle

>  <origin>  (89) 
adg

>  <m_score__min__energy>  (89) 
-7.3799999999999999

>  <m_primary>  (89) 
energy

$$$$
96:0
     RDKit          3D

 40 41  0  0  1  0  0  0  0  0999 V2000
  142.0360  153.5610  133.0680 C   0  0  0  0  0  0  0  0  0  0  0  0
  142.9160  152.3590  133.4980 C   0  0  1  0  0  0  0  0  0  0  0  0
  142.5770  151.2280  132.6100 C   0  0  0  0  0  0  0  0  0  0  0  0
  141.4690  151.0850  132.0320 O   0  0  0  0  0  0  0  0  0  0  0  0
  143.5710  150.2520  132.4060 O   0  0  0  0  0  0  0  0  0  0  0  0
  144.6050  152.9030  133.3330 S   0  0  0  0  0  0  0  0  0  0  0  0
  145.3580  151.7860  132.6470 O   0  0  0  0  0  0  0  0  0  0  0  0
  145.2000  153.0330  134.6910 O   0  0  0  0  0  0  0  0  0  0  0  0
  144.7560  154.3530  132.3460 C   0  0  0  0  0  0  0  0  0  0  0  0
  145.1320  155.5590  133.0920 C   0  0  0  0  0  0  0  0  0  0  0  0
  144.2260  155.9900  133.8850 O   0  0  0  0  0  0  0  0  0  0  0  0
  146.3220  156.2950  133.0560 N   0  0  0  0  0  0  0  0  0  0  0  0
  147.5450  155.7660  132.8360 C   0  0  0  0  0  0  0  0  0  0  0  0
  148.0480  154.4290  132.6760 C   0  0  0  0  0  0  0  0  0  0  0  0
  147.3690  153.1970  132.7750 N   0  0  0  0  0  0  0  0  0  0  0  0
  149.3140  154.2650  132.4040 O   0  0  0  0  0  0  0  0  0  0  0  0
  148.4370  156.8560  132.8380 C   0  0  0  0  0  0  0  0  0  0  0  0
  147.7690  158.0170  133.0550 C   0  0  0  0  0  0  0  0  0  0  0  0
  148.2080  159.3060  133.1400 C   0  0  0  0  0  0  0  0  0  0  0  0
  147.3310  160.3420  133.3710 C   0  0  0  0  0  0  0  0  0  0  0  0
  146.0010  160.0200  133.5110 C   0  0  0  0  0  0  0  0  0  0  0  0
  144.9970  161.1010  133.7630 C   0  0  0  0  0  0  0  0  0  0  0  0
  143.7330  160.5600  133.9230 F   0  0  0  0  0  0  0  0  0  0  0  0
  145.3620  161.8960  134.8310 F   0  0  0  0  0  0  0  0  0  0  0  0
  145.5680  158.6940  133.4220 C   0  0  0  0  0  0  0  0  0  0  0  0
  146.4310  157.6490  133.1920 C   0  0  0  0  0  0  0  0  0  0  0  0
  141.6580  154.0773  133.9627 H   0  0  0  0  0  0  0  0  0  0  0  0
  142.6375  154.2598  132.4681 H   0  0  0  0  0  0  0  0  0  0  0  0
  141.1882  153.1987  132.4681 H   0  0  0  0  0  0  0  0  0  0  0  0
  142.7553  152.0233  134.5331 H   0  0  0  0  0  0  0  0  0  0  0  0
  144.4330  150.5870  131.9890 H   0  0  0  0  0  0  0  0  0  0  0  0
  145.5239  154.1691  131.5801 H   0  0  0  0  0  0  0  0  0  0  0  0
  143.7609  154.5463  131.9188 H   0  0  0  0  0  0  0  0  0  0  0  0
  147.0150  152.7980  133.6970 H   0  0  0  0  0  0  0  0  0  0  0  0
  147.2250  152.6490  131.8710 H   0  0  0  0  0  0  0  0  0  0  0  0
  149.5234  156.7771  132.6850 H   0  0  0  0  0  0  0  0  0  0  0  0
  149.2803  159.5211  133.0220 H   0  0  0  0  0  0  0  0  0  0  0  0
  147.6792  161.3831  133.4407 H   0  0  0  0  0  0  0  0  0  0  0  0
  144.9700  161.7581  132.8813 H   0  0  0  0  0  0  0  0  0  0  0  0
  144.4958  158.4785  133.5405 H   0  0  0  0  0  0  0  0  0  0  0  0
  1  2  1  0
  2  3  1  0
  3  4  2  0
  3  5  1  0
  2  6  1  0
  6  7  2  0
  6  8  2  0
  6  9  1  0
  9 10  1  0
 10 11  2  0
 10 12  1  0
 12 13  1  0
 13 14  1  0
 14 15  1  0
 14 16  2  0
 13 17  2  0
 17 18  1  0
 18 19  2  0
 19 20  1  0
 20 21  2  0
 21 22  1  0
 22 23  1  0
 22 24  1  0
 21 25  1  0
 25 26  2  0
 26 12  1  0
 26 18  1  0
  1 27  1  0
  1 28  1  0
  1 29  1  0
  2 30  1  1
  5 31  1  0
  9 32  1  0
  9 33  1  0
 15 34  1  0
 15 35  1  0
 17 36  1  0
 19 37  1  0
 20 38  1  0
 22 39  1  0
 25 40  1  0
M  END
>  <smiles>  (90) 
CC(C(=O)O)S(=O)(=O)CC(=O)n1c(C(N)=O)cc2ccc(C(F)F)cc21

>  <score_type>  (90) 
oracle

>  <origin>  (90) 
adg

>  <m_score__min__energy>  (90) 
-6.7000000000000002

>  <m_primary>  (90) 
energy

$$$$
97:0
     RDKit          3D

 53 54  0  0  0  0  0  0  0  0999 V2000
  140.9400  158.8400  131.7260 N   0  0  0  0  0  0  0  0  0  0  0  0
  139.6070  159.3120  131.3840 C   0  0  0  0  0  0  0  0  0  0  0  0
  138.7180  159.0510  132.5730 C   0  0  0  0  0  0  0  0  0  0  0  0
  139.3790  158.5370  133.6930 O   0  0  0  0  0  0  0  0  0  0  0  0
  139.6750  157.1780  133.8410 C   0  0  0  0  0  0  0  0  0  0  0  0
  138.7390  156.3780  133.7050 O   0  0  0  0  0  0  0  0  0  0  0  0
  140.9970  156.8280  134.1310 N   0  0  0  0  0  0  0  0  0  0  0  0
  141.4550  155.4410  134.3170 C   0  0  0  0  0  0  0  0  0  0  0  0
  142.5330  155.1560  133.3260 C   0  0  0  0  0  0  0  0  0  0  0  0
  143.7940  155.6240  133.6470 O   0  0  0  0  0  0  0  0  0  0  0  0
  144.4070  154.7920  134.5510 C   0  0  0  0  0  0  0  0  0  0  0  0
  145.8750  154.8460  134.6020 C   0  0  0  0  0  0  0  0  0  0  0  0
  146.3820  154.1530  135.5700 O   0  0  0  0  0  0  0  0  0  0  0  0
  146.7750  155.5140  133.7690 N   0  0  0  0  0  0  0  0  0  0  0  0
  147.9400  155.1350  133.2270 C   0  0  0  0  0  0  0  0  0  0  0  0
  148.5140  153.8130  133.0330 C   0  0  0  0  0  0  0  0  0  0  0  0
  148.0870  152.6300  133.6790 N   0  0  0  0  0  0  0  0  0  0  0  0
  149.4810  153.6700  132.2060 O   0  0  0  0  0  0  0  0  0  0  0  0
  148.5710  156.2460  132.6290 C   0  0  0  0  0  0  0  0  0  0  0  0
  147.7480  157.3140  132.8190 C   0  0  0  0  0  0  0  0  0  0  0  0
  147.9140  158.6260  132.4190 C   0  0  0  0  0  0  0  0  0  0  0  0
  146.9490  159.5610  132.7140 C   0  0  0  0  0  0  0  0  0  0  0  0
  145.8400  159.1370  133.4100 C   0  0  0  0  0  0  0  0  0  0  0  0
  144.7900  160.1510  133.7330 C   0  0  0  0  0  0  0  0  0  0  0  0
  143.1700  159.3330  133.7670 P   0  0  0  0  0  0  0  0  0  0  0  0
  142.9280  158.7150  135.1370 O   0  0  0  0  0  0  0  0  0  0  0  0
  141.9250  160.4100  133.4750 O   0  0  0  0  0  0  0  0  0  0  0  0
  143.1240  158.0780  132.6280 O   0  0  0  0  0  0  0  0  0  0  0  0
  145.6850  157.8030  133.8090 C   0  0  0  0  0  0  0  0  0  0  0  0
  146.6580  156.8560  133.5100 C   0  0  0  0  0  0  0  0  0  0  0  0
  141.0030  158.5260  132.7300 H   0  0  0  0  0  0  0  0  0  0  0  0
  141.6590  159.5310  131.4850 H   0  0  0  0  0  0  0  0  0  0  0  0
  139.6345  160.3895  131.1643 H   0  0  0  0  0  0  0  0  0  0  0  0
  139.2270  158.7909  130.4929 H   0  0  0  0  0  0  0  0  0  0  0  0
  138.2428  160.0003  132.8609 H   0  0  0  0  0  0  0  0  0  0  0  0
  137.9948  158.2840  132.2588 H   0  0  0  0  0  0  0  0  0  0  0  0
  141.7310  157.5920  134.2270 H   0  0  0  0  0  0  0  0  0  0  0  0
  141.8470  155.3143  135.3370 H   0  0  0  0  0  0  0  0  0  0  0  0
  140.6155  154.7460  134.1677 H   0  0  0  0  0  0  0  0  0  0  0  0
  142.5999  154.0645  133.2069 H   0  0  0  0  0  0  0  0  0  0  0  0
  142.2427  155.6932  132.4111 H   0  0  0  0  0  0  0  0  0  0  0  0
  144.0283  155.0486  135.5514 H   0  0  0  0  0  0  0  0  0  0  0  0
  144.1648  153.7719  134.2182 H   0  0  0  0  0  0  0  0  0  0  0  0
  148.6710  151.7720  133.7210 H   0  0  0  0  0  0  0  0  0  0  0  0
  147.1510  152.5980  134.1390 H   0  0  0  0  0  0  0  0  0  0  0  0
  149.5406  156.2490  132.1095 H   0  0  0  0  0  0  0  0  0  0  0  0
  148.8169  158.9227  131.8652 H   0  0  0  0  0  0  0  0  0  0  0  0
  147.0599  160.6107  132.4045 H   0  0  0  0  0  0  0  0  0  0  0  0
  144.9985  160.5975  134.7164 H   0  0  0  0  0  0  0  0  0  0  0  0
  144.7907  160.9431  132.9697 H   0  0  0  0  0  0  0  0  0  0  0  0
  141.0550  159.9340  133.5390 H   0  0  0  0  0  0  0  0  0  0  0  0
  142.5130  158.4160  131.9010 H   0  0  0  0  0  0  0  0  0  0  0  0
  144.7845  157.5019  134.3644 H   0  0  0  0  0  0  0  0  0  0  0  0
  1  2  1  0
  2  3  1  0
  3  4  1  0
  4  5  1  0
  5  6  2  0
  5  7  1  0
  7  8  1  0
  8  9  1  0
  9 10  1  0
 10 11  1  0
 11 12  1  0
 12 13  2  0
 12 14  1  0
 14 15  1  0
 15 16  1  0
 16 17  1  0
 16 18  2  0
 15 19  2  0
 19 20  1  0
 20 21  2  0
 21 22  1  0
 22 23  2  0
 23 24  1  0
 24 25  1  0
 25 26  2  0
 25 27  1  0
 25 28  1  0
 23 29  1  0
 29 30  2  0
 30 14  1  0
 30 20  1  0
  1 31  1  0
  1 32  1  0
  2 33  1  0
  2 34  1  0
  3 35  1  0
  3 36  1  0
  7 37  1  0
  8 38  1  0
  8 39  1  0
  9 40  1  0
  9 41  1  0
 11 42  1  0
 11 43  1  0
 17 44  1  0
 17 45  1  0
 19 46  1  0
 21 47  1  0
 22 48  1  0
 24 49  1  0
 24 50  1  0
 27 51  1  0
 28 52  1  0
 29 53  1  0
M  END
>  <smiles>  (91) 
NCCOC(=O)NCCOCC(=O)n1c(C(N)=O)cc2ccc(CP(=O)(O)O)cc21

>  <score_type>  (91) 
oracle

>  <origin>  (91) 
adg

>  <m_score__min__energy>  (91) 
-6.8099999999999996

>  <m_primary>  (91) 
energy

$$$$
98:0
     RDKit          3D

 58 59  0  0  1  0  0  0  0  0999 V2000
  139.1090  157.8550  132.2220 C   0  0  0  0  0  0  0  0  0  0  0  0
  139.6330  159.2010  132.2550 N   0  0  0  0  0  0  0  0  0  0  0  0
  139.0050  160.1530  131.3240 C   0  0  0  0  0  0  0  0  0  0  0  0
  140.6710  159.6590  133.0870 C   0  0  0  0  0  0  0  0  0  0  0  0
  141.0640  160.8790  132.9890 O   0  0  0  0  0  0  0  0  0  0  0  0
  141.3860  158.8510  134.0990 C   0  0  1  0  0  0  0  0  0  0  0  0
  142.8110  159.2720  134.1310 N   0  0  0  0  0  0  0  0  0  0  0  0
  143.7840  158.5410  133.3460 C   0  0  0  0  0  0  0  0  0  0  0  0
  143.2740  157.5970  132.7040 O   0  0  0  0  0  0  0  0  0  0  0  0
  145.1470  158.9670  133.3940 C   0  0  0  0  0  0  0  0  0  0  0  0
  145.2860  160.2120  133.7750 O   0  0  0  0  0  0  0  0  0  0  0  0
  146.3590  158.3360  133.1300 N   0  0  0  0  0  0  0  0  0  0  0  0
  146.6910  157.1220  133.6640 C   0  0  0  0  0  0  0  0  0  0  0  0
  145.9590  156.1280  134.4090 C   0  0  0  0  0  0  0  0  0  0  0  0
  144.6290  156.1960  134.8900 N   0  0  0  0  0  0  0  0  0  0  0  0
  146.5320  155.0000  134.7030 O   0  0  0  0  0  0  0  0  0  0  0  0
  148.0250  156.8590  133.2790 C   0  0  0  0  0  0  0  0  0  0  0  0
  148.4900  157.8870  132.5290 C   0  0  0  0  0  0  0  0  0  0  0  0
  149.7200  158.0910  131.9470 C   0  0  0  0  0  0  0  0  0  0  0  0
  149.9840  159.2360  131.2390 C   0  0  0  0  0  0  0  0  0  0  0  0
  148.9740  160.1640  131.1350 C   0  0  0  0  0  0  0  0  0  0  0  0
  149.2200  161.4310  130.3680 C   0  0  0  0  0  0  0  0  0  0  0  0
  150.2670  162.1420  130.9110 F   0  0  0  0  0  0  0  0  0  0  0  0
  148.1080  162.2390  130.3600 F   0  0  0  0  0  0  0  0  0  0  0  0
  149.5680  161.1270  129.0530 F   0  0  0  0  0  0  0  0  0  0  0  0
  147.7430  159.9370  131.7290 C   0  0  0  0  0  0  0  0  0  0  0  0
  147.4480  158.7980  132.4440 C   0  0  0  0  0  0  0  0  0  0  0  0
  140.9020  159.1330  135.4880 C   0  0  2  0  0  0  0  0  0  0  0  0
  142.0120  159.6990  136.1700 O   0  0  0  0  0  0  0  0  0  0  0  0
  140.5250  158.0280  136.2670 O   0  0  0  0  0  0  0  0  0  0  0  0
  141.3850  156.9670  136.5000 C   0  0  0  0  0  0  0  0  0  0  0  0
  142.4890  156.9570  135.8620 O   0  0  0  0  0  0  0  0  0  0  0  0
  141.1110  155.8480  137.4290 C   0  0  0  0  0  0  0  0  0  0  0  0
  140.9310  156.3600  138.8520 C   0  0  0  0  0  0  0  0  0  0  0  0
  141.8670  157.4840  139.1000 C   0  0  0  0  0  0  0  0  0  0  0  0
  142.8920  157.2010  139.8150 O   0  0  0  0  0  0  0  0  0  0  0  0
  141.7170  158.7600  138.6340 O   0  0  0  0  0  0  0  0  0  0  0  0
  138.9674  157.4913  133.2504 H   0  0  0  0  0  0  0  0  0  0  0  0
  138.1433  157.8503  131.6952 H   0  0  0  0  0  0  0  0  0  0  0  0
  139.8173  157.1986  131.6952 H   0  0  0  0  0  0  0  0  0  0  0  0
  138.4875  160.9376  131.8955 H   0  0  0  0  0  0  0  0  0  0  0  0
  139.7789  160.6109  130.6904 H   0  0  0  0  0  0  0  0  0  0  0  0
  138.2794  159.6218  130.6904 H   0  0  0  0  0  0  0  0  0  0  0  0
  141.2284  157.7974  133.8249 H   0  0  0  0  0  0  0  0  0  0  0  0
  143.0470  160.0840  134.7240 H   0  0  0  0  0  0  0  0  0  0  0  0
  144.4610  156.0760  135.9380 H   0  0  0  0  0  0  0  0  0  0  0  0
  143.8020  156.3540  134.2420 H   0  0  0  0  0  0  0  0  0  0  0  0
  148.5974  155.9587  133.5469 H   0  0  0  0  0  0  0  0  0  0  0  0
  150.5027  157.3251  132.0509 H   0  0  0  0  0  0  0  0  0  0  0  0
  150.9656  159.4055  130.7724 H   0  0  0  0  0  0  0  0  0  0  0  0
  146.9625  160.7050  131.6241 H   0  0  0  0  0  0  0  0  0  0  0  0
  140.0018  159.7544  135.3720 H   0  0  0  0  0  0  0  0  0  0  0  0
  142.4810  158.9580  136.6300 H   0  0  0  0  0  0  0  0  0  0  0  0
  140.1924  155.3325  137.1121 H   0  0  0  0  0  0  0  0  0  0  0  0
  141.9648  155.1548  137.4084 H   0  0  0  0  0  0  0  0  0  0  0  0
  139.8965  156.7087  138.9872 H   0  0  0  0  0  0  0  0  0  0  0  0
  141.1418  155.5465  139.5617 H   0  0  0  0  0  0  0  0  0  0  0  0
  141.0440  158.8900  137.8660 H   0  0  0  0  0  0  0  0  0  0  0  0
  1  2  1  0
  2  3  1  0
  2  4  1  0
  4  5  2  0
  4  6  1  0
  6  7  1  0
  7  8  1  0
  8  9  2  0
  8 10  1  0
 10 11  2  0
 10 12  1  0
 12 13  1  0
 13 14  1  0
 14 15  1  0
 14 16  2  0
 13 17  2  0
 17 18  1  0
 18 19  2  0
 19 20  1  0
 20 21  2  0
 21 22  1  0
 22 23  1  0
 22 24  1  0
 22 25  1  0
 21 26  1  0
 26 27  2  0
  6 28  1  0
 28 29  1  0
 28 30  1  0
 30 31  1  0
 31 32  2  0
 31 33  1  0
 33 34  1  0
 34 35  1  0
 35 36  2  0
 35 37  1  0
 27 12  1  0
 27 18  1  0
  1 38  1  0
  1 39  1  0
  1 40  1  0
  3 41  1  0
  3 42  1  0
  3 43  1  0
  6 44  1  6
  7 45  1  0
 15 46  1  0
 15 47  1  0
 17 48  1  0
 19 49  1  0
 20 50  1  0
 26 51  1  0
 28 52  1  6
 29 53  1  0
 33 54  1  0
 33 55  1  0
 34 56  1  0
 34 57  1  0
 37 58  1  0
M  END
>  <smiles>  (92) 
CN(C)C(=O)C(NC(=O)C(=O)n1c(C(N)=O)cc2ccc(C(F)(F)F)cc21)C(O)OC(=O)CCC(=O)O

>  <score_type>  (92) 
oracle

>  <origin>  (92) 
adg

>  <m_score__min__energy>  (92) 
-7.7300000000000004

>  <m_primary>  (92) 
energy

$$$$
