0:0
     RDKit          3D

 40 42  0  0  0  0  0  0  0  0999 V2000
  149.9650  160.1510  129.8280 C   0  0  0  0  0  0  0  0  0  0  0  0
  149.2660  159.0360  131.0870 S   0  0  0  0  0  0  0  0  0  0  0  0
  148.0400  160.2310  131.7370 C   0  0  0  0  0  0  0  0  0  0  0  0
  147.6400  159.9290  133.1530 C   0  0  0  0  0  0  0  0  0  0  0  0
  148.4570  160.1100  134.0970 O   0  0  0  0  0  0  0  0  0  0  0  0
  146.3740  159.3090  133.4260 N   0  0  0  0  0  0  0  0  0  0  0  0
  145.1940  159.9240  133.7170 C   0  0  0  0  0  0  0  0  0  0  0  0
  144.9970  161.3780  133.9040 C   0  0  0  0  0  0  0  0  0  0  0  0
  146.0540  162.2110  134.3720 N   0  0  0  0  0  0  0  0  0  0  0  0
  143.8690  161.8890  133.6710 O   0  0  0  0  0  0  0  0  0  0  0  0
  144.1800  158.9810  133.8720 C   0  0  0  0  0  0  0  0  0  0  0  0
  144.7800  157.7600  133.6670 C   0  0  0  0  0  0  0  0  0  0  0  0
  144.2400  156.4790  133.6890 C   0  0  0  0  0  0  0  0  0  0  0  0
  145.0950  155.3980  133.4160 C   0  0  0  0  0  0  0  0  0  0  0  0
  146.4670  155.6140  133.1160 C   0  0  0  0  0  0  0  0  0  0  0  0
  147.3660  154.4690  132.8190 C   0  0  0  0  0  0  0  0  0  0  0  0
  146.8950  153.1500  132.9070 C   0  0  0  0  0  0  0  0  0  0  0  0
  147.7490  152.0880  132.6130 C   0  0  0  0  0  0  0  0  0  0  0  0
  149.0740  152.3340  132.2270 C   0  0  0  0  0  0  0  0  0  0  0  0
  149.9860  151.2140  131.9100 C   0  0  0  0  0  0  0  0  0  0  0  0
  150.7360  150.7270  132.7980 O   0  0  0  0  0  0  0  0  0  0  0  0
  150.0280  150.6820  130.6260 O   0  0  0  0  0  0  0  0  0  0  0  0
  149.5100  153.6660  132.1490 C   0  0  0  0  0  0  0  0  0  0  0  0
  148.6610  154.6890  132.4410 N   0  0  0  0  0  0  0  0  0  0  0  0
  146.9730  156.9330  133.1000 C   0  0  0  0  0  0  0  0  0  0  0  0
  146.1040  157.9870  133.3960 C   0  0  0  0  0  0  0  0  0  0  0  0
  150.4865  160.9829  130.3239 H   0  0  0  0  0  0  0  0  0  0  0  0
  150.6763  159.5947  129.1998 H   0  0  0  0  0  0  0  0  0  0  0  0
  149.1543  160.5488  129.1998 H   0  0  0  0  0  0  0  0  0  0  0  0
  148.4768  161.2399  131.7010 H   0  0  0  0  0  0  0  0  0  0  0  0
  147.1380  160.1593  131.1115 H   0  0  0  0  0  0  0  0  0  0  0  0
  147.0290  161.8460  134.4550 H   0  0  0  0  0  0  0  0  0  0  0  0
  143.1229  159.1724  134.1084 H   0  0  0  0  0  0  0  0  0  0  0  0
  143.1754  156.3167  133.9134 H   0  0  0  0  0  0  0  0  0  0  0  0
  144.6976  154.3725  133.4347 H   0  0  0  0  0  0  0  0  0  0  0  0
  145.8549  152.9546  133.2071 H   0  0  0  0  0  0  0  0  0  0  0  0
  147.3819  151.0535  132.6842 H   0  0  0  0  0  0  0  0  0  0  0  0
  150.5456  153.8847  131.8496 H   0  0  0  0  0  0  0  0  0  0  0  0
  149.0350  155.6640  132.3880 H   0  0  0  0  0  0  0  0  0  0  0  0
  148.0288  157.1264  132.8596 H   0  0  0  0  0  0  0  0  0  0  0  0
  1  2  1  0
  2  3  1  0
  3  4  1  0
  4  5  2  0
  4  6  1  0
  6  7  1  0
  7  8  1  0
  8  9  1  0
  8 10  2  0
  7 11  2  0
 11 12  1  0
 12 13  2  0
 13 14  1  0
 14 15  2  0
 15 16  1  0
 16 17  2  0
 17 18  1  0
 18 19  2  0
 19 20  1  0
 20 21  2  0
 20 22  1  0
 19 23  1  0
 23 24  2  0
 15 25  1  0
 25 26  2  0
 26  6  1  0
 26 12  1  0
 24 16  1  0
  1 27  1  0
  1 28  1  0
  1 29  1  0
  3 30  1  0
  3 31  1  0
  9 32  1  0
 11 33  1  0
 13 34  1  0
 14 35  1  0
 17 36  1  0
 18 37  1  0
 23 38  1  0
 24 39  1  0
 25 40  1  0
M  CHG  3   9  -1  22  -1  24   1
M  END
>  <UniqueID>  (1) 
1

>  <SMILES>  (1) 
CSCC(=O)n1c(C([NH-])=O)cc2ccc(-c3ccc(C(=O)[O-])c[nH+]3)cc21

>  <Energy>  (1) 
84.434209259547

>  <Genealogy>  (1) 
CSCC(=O)n1c(C([NH-])=O)cc2ccc(-c3ccc(C(=O)[O-])c[nH+]3)cc21 (protonated)
CSCC(=O)n1c(C([NH-])=O)cc2ccc(-c3ccc(C(=O)[O-])c[nH+]3)cc21 (3D coordinates assigned)
CSCC(=O)n1c(C([NH-])=O)cc2ccc(-c3ccc(C(=O)[O-])c[nH+]3)cc21 (optimized conformer: 84.434209259547 kcal/mol)

>  <smiles>  (1) 
CSCC(=O)n1c(C(N)=O)cc2ccc(-c3ccc(C(=O)O)cn3)cc21

>  <score_type>  (1) 
oracle

>  <origin>  (1) 
adg

>  <m_score__min__energy>  (1) 
-8.0199999999999996

>  <m_primary>  (1) 
energy

$$$$
1:0
     RDKit          3D

 43 46  0  0  0  0  0  0  0  0999 V2000
  142.3460  159.8710  134.3630 C   0  0  0  0  0  0  0  0  0  0  0  0
  141.5260  158.7800  133.8120 N   0  0  0  0  0  0  0  0  0  0  0  0
  141.7600  157.4810  134.2020 C   0  0  0  0  0  0  0  0  0  0  0  0
  142.6950  157.2060  135.0030 O   0  0  0  0  0  0  0  0  0  0  0  0
  140.9510  156.4720  133.6860 C   0  0  0  0  0  0  0  0  0  0  0  0
  140.9180  155.0900  133.8200 C   0  0  0  0  0  0  0  0  0  0  0  0
  141.7580  154.1990  134.6480 C   0  0  0  0  0  0  0  0  0  0  0  0
  141.6980  154.2500  135.9040 O   0  0  0  0  0  0  0  0  0  0  0  0
  142.6320  153.2460  134.0260 N   0  0  0  0  0  0  0  0  0  0  0  0
  143.9710  153.3630  133.8030 C   0  0  0  0  0  0  0  0  0  0  0  0
  144.8360  154.4640  134.2780 C   0  0  0  0  0  0  0  0  0  0  0  0
  144.5490  155.1510  135.4930 N   0  0  0  0  0  0  0  0  0  0  0  0
  145.8620  154.7810  133.6190 O   0  0  0  0  0  0  0  0  0  0  0  0
  144.4460  152.2570  133.0980 C   0  0  0  0  0  0  0  0  0  0  0  0
  143.3460  151.4530  132.8960 C   0  0  0  0  0  0  0  0  0  0  0  0
  143.2340  150.2350  132.2320 C   0  0  0  0  0  0  0  0  0  0  0  0
  141.9620  149.6440  132.1520 C   0  0  0  0  0  0  0  0  0  0  0  0
  140.8340  150.2750  132.7330 C   0  0  0  0  0  0  0  0  0  0  0  0
  139.4740  149.6580  132.5990 C   0  0  0  0  0  0  0  0  0  0  0  0
  139.5360  148.5900  131.7230 F   0  0  0  0  0  0  0  0  0  0  0  0
  140.9830  151.5200  133.3810 C   0  0  0  0  0  0  0  0  0  0  0  0
  142.2650  152.0760  133.4630 C   0  0  0  0  0  0  0  0  0  0  0  0
  139.8790  154.6750  132.9930 C   0  0  0  0  0  0  0  0  0  0  0  0
  139.3200  155.7150  132.4060 O   0  0  0  0  0  0  0  0  0  0  0  0
  139.9520  156.7880  132.8140 C   0  0  0  0  0  0  0  0  0  0  0  0
  139.6840  158.0700  132.4480 N   0  0  0  0  0  0  0  0  0  0  0  0
  138.6060  158.3690  131.4970 C   0  0  0  0  0  0  0  0  0  0  0  0
  140.4810  159.0720  132.9530 C   0  0  0  0  0  0  0  0  0  0  0  0
  140.2530  160.2720  132.6260 O   0  0  0  0  0  0  0  0  0  0  0  0
  142.3170  159.8324  135.4619 H   0  0  0  0  0  0  0  0  0  0  0  0
  143.3849  159.7584  134.0194 H   0  0  0  0  0  0  0  0  0  0  0  0
  141.9489  160.8376  134.0194 H   0  0  0  0  0  0  0  0  0  0  0  0
  143.5680  155.3830  135.7610 H   0  0  0  0  0  0  0  0  0  0  0  0
  145.4795  152.0672  132.7726 H   0  0  0  0  0  0  0  0  0  0  0  0
  144.1139  149.7503  131.7839 H   0  0  0  0  0  0  0  0  0  0  0  0
  141.8404  148.6817  131.6331 H   0  0  0  0  0  0  0  0  0  0  0  0
  139.1329  149.3053  133.5835 H   0  0  0  0  0  0  0  0  0  0  0  0
  138.7679  150.4079  132.2130 H   0  0  0  0  0  0  0  0  0  0  0  0
  140.1140  152.0400  133.8105 H   0  0  0  0  0  0  0  0  0  0  0  0
  139.5685  153.6295  132.8495 H   0  0  0  0  0  0  0  0  0  0  0  0
  137.6895  158.6232  132.0497 H   0  0  0  0  0  0  0  0  0  0  0  0
  138.9005  159.2194  130.8644 H   0  0  0  0  0  0  0  0  0  0  0  0
  138.4204  157.4884  130.8644 H   0  0  0  0  0  0  0  0  0  0  0  0
  1  2  1  0
  2  3  1  0
  3  4  2  0
  3  5  1  0
  5  6  1  0
  6  7  1  0
  7  8  2  0
  7  9  1  0
  9 10  1  0
 10 11  1  0
 11 12  1  0
 11 13  2  0
 10 14  2  0
 14 15  1  0
 15 16  2  0
 16 17  1  0
 17 18  2  0
 18 19  1  0
 19 20  1  0
 18 21  1  0
 21 22  2  0
  6 23  2  0
 23 24  1  0
 24 25  1  0
 25 26  1  0
 26 27  1  0
 26 28  1  0
 28 29  2  0
 28  2  1  0
 25  5  2  0
 22  9  1  0
 22 15  1  0
  1 30  1  0
  1 31  1  0
  1 32  1  0
 12 33  1  0
 14 34  1  0
 16 35  1  0
 17 36  1  0
 19 37  1  0
 19 38  1  0
 21 39  1  0
 23 40  1  0
 27 41  1  0
 27 42  1  0
 27 43  1  0
M  CHG  1  12  -1
M  END
>  <UniqueID>  (2) 
2

>  <SMILES>  (2) 
Cn1c(=O)c2c(C(=O)n3c(C([NH-])=O)cc4ccc(CF)cc43)coc2n(C)c1=O

>  <Energy>  (2) 
129.81420276056457

>  <Genealogy>  (2) 
Cn1c(=O)c2c(C(=O)n3c(C([NH-])=O)cc4ccc(CF)cc43)coc2n(C)c1=O (protonated)
Cn1c(=O)c2c(C(=O)n3c(C([NH-])=O)cc4ccc(CF)cc43)coc2n(C)c1=O (3D coordinates assigned)
Cn1c(=O)c2c(C(=O)n3c(C([NH-])=O)cc4ccc(CF)cc43)coc2n(C)c1=O (optimized conformer: 129.81420276056457 kcal/mol)

>  <smiles>  (2) 
Cn1c(=O)c2c(C(=O)n3c(C(N)=O)cc4ccc(CF)cc43)coc2n(C)c1=O

>  <score_type>  (2) 
oracle

>  <origin>  (2) 
adg

>  <m_score__min__energy>  (2) 
-7.8399999999999999

>  <m_primary>  (2) 
energy

$$$$
2:0
     RDKit          3D

 46 47  0  0  0  0  0  0  0  0999 V2000
  141.7260  156.5870  136.5950 C   0  0  0  0  0  0  0  0  0  0  0  0
  142.0040  157.4540  135.3500 C   0  0  0  0  0  0  0  0  0  0  0  0
  140.8160  157.3040  134.3770 C   0  0  0  0  0  0  0  0  0  0  0  0
  142.1150  158.9370  135.7590 C   0  0  0  0  0  0  0  0  0  0  0  0
  143.2930  156.9740  134.6250 C   0  0  0  0  0  0  0  0  0  0  0  0
  143.6910  157.8040  133.4270 C   0  0  0  0  0  0  0  0  0  0  0  0
  142.9240  157.8600  132.4300 O   0  0  0  0  0  0  0  0  0  0  0  0
  144.9570  158.4860  133.3900 N   0  0  0  0  0  0  0  0  0  0  0  0
  145.2020  159.8240  133.5150 C   0  0  0  0  0  0  0  0  0  0  0  0
  144.1970  160.8930  133.7210 C   0  0  0  0  0  0  0  0  0  0  0  0
  142.8340  160.7170  133.3490 N   0  0  0  0  0  0  0  0  0  0  0  0
  144.5520  161.9880  134.2340 O   0  0  0  0  0  0  0  0  0  0  0  0
  146.5700  160.0770  133.4300 C   0  0  0  0  0  0  0  0  0  0  0  0
  147.1590  158.8510  133.2240 C   0  0  0  0  0  0  0  0  0  0  0  0
  148.4960  158.5250  133.0260 C   0  0  0  0  0  0  0  0  0  0  0  0
  148.8170  157.1800  132.7760 C   0  0  0  0  0  0  0  0  0  0  0  0
  147.7980  156.1910  132.7110 C   0  0  0  0  0  0  0  0  0  0  0  0
  148.1020  154.8110  132.4330 N   0  0  0  0  0  0  0  0  0  0  0  0
  148.4360  153.8380  133.4770 C   0  0  0  0  0  0  0  0  0  0  0  0
  149.2880  152.6930  132.9220 C   0  0  0  0  0  0  0  0  0  0  0  0
  149.5910  152.9130  131.5110 N   0  0  0  0  0  0  0  0  0  0  0  0
  146.4520  156.5690  132.9130 C   0  0  0  0  0  0  0  0  0  0  0  0
  146.1660  157.9100  133.1940 C   0  0  0  0  0  0  0  0  0  0  0  0
  141.9155  157.1780  137.5032 H   0  0  0  0  0  0  0  0  0  0  0  0
  140.6769  156.2566  136.5849 H   0  0  0  0  0  0  0  0  0  0  0  0
  142.3874  155.7081  136.5849 H   0  0  0  0  0  0  0  0  0  0  0  0
  139.8848  157.1864  134.9506 H   0  0  0  0  0  0  0  0  0  0  0  0
  140.7456  158.2004  133.7433 H   0  0  0  0  0  0  0  0  0  0  0  0
  140.9706  156.4182  133.7433 H   0  0  0  0  0  0  0  0  0  0  0  0
  142.1209  159.0153  136.8562 H   0  0  0  0  0  0  0  0  0  0  0  0
  143.0473  159.3596  135.3563 H   0  0  0  0  0  0  0  0  0  0  0  0
  141.2560  159.4937  135.3563 H   0  0  0  0  0  0  0  0  0  0  0  0
  144.1215  156.9973  135.3482 H   0  0  0  0  0  0  0  0  0  0  0  0
  143.0776  155.9644  134.2452 H   0  0  0  0  0  0  0  0  0  0  0  0
  142.5590  160.0080  132.6340 H   0  0  0  0  0  0  0  0  0  0  0  0
  147.0729  161.0520  133.5107 H   0  0  0  0  0  0  0  0  0  0  0  0
  149.2789  159.2967  133.0639 H   0  0  0  0  0  0  0  0  0  0  0  0
  149.8677  156.8894  132.6291 H   0  0  0  0  0  0  0  0  0  0  0  0
  148.0760  154.4930  131.4370 H   0  0  0  0  0  0  0  0  0  0  0  0
  148.9968  154.3473  134.2746 H   0  0  0  0  0  0  0  0  0  0  0  0
  147.4991  153.4143  133.8678 H   0  0  0  0  0  0  0  0  0  0  0  0
  150.2290  152.6354  133.4888 H   0  0  0  0  0  0  0  0  0  0  0  0
  148.7252  151.7531  133.0207 H   0  0  0  0  0  0  0  0  0  0  0  0
  148.7900  153.4310  131.0810 H   0  0  0  0  0  0  0  0  0  0  0  0
  150.4180  153.5510  131.4600 H   0  0  0  0  0  0  0  0  0  0  0  0
  145.6448  155.8244  132.8507 H   0  0  0  0  0  0  0  0  0  0  0  0
  1  2  1  0
  2  3  1  0
  2  4  1  0
  2  5  1  0
  5  6  1  0
  6  7  2  0
  6  8  1  0
  8  9  1  0
  9 10  1  0
 10 11  1  0
 10 12  2  0
  9 13  2  0
 13 14  1  0
 14 15  2  0
 15 16  1  0
 16 17  2  0
 17 18  1  0
 18 19  1  0
 19 20  1  0
 20 21  1  0
 17 22  1  0
 22 23  2  0
 23  8  1  0
 23 14  1  0
  1 24  1  0
  1 25  1  0
  1 26  1  0
  3 27  1  0
  3 28  1  0
  3 29  1  0
  4 30  1  0
  4 31  1  0
  4 32  1  0
  5 33  1  0
  5 34  1  0
 11 35  1  0
 13 36  1  0
 15 37  1  0
 16 38  1  0
 18 39  1  0
 19 40  1  0
 19 41  1  0
 20 42  1  0
 20 43  1  0
 21 44  1  0
 21 45  1  0
 22 46  1  0
M  CHG  1  11  -1
M  END
>  <UniqueID>  (3) 
3

>  <SMILES>  (3) 
CC(C)(C)CC(=O)n1c(C([NH-])=O)cc2ccc(NCCN)cc21

>  <Energy>  (3) 
76.65240827978477

>  <Genealogy>  (3) 
CC(C)(C)CC(=O)n1c(C([NH-])=O)cc2ccc(NCCN)cc21 (protonated)
CC(C)(C)CC(=O)n1c(C([NH-])=O)cc2ccc(NCCN)cc21 (3D coordinates assigned)
CC(C)(C)CC(=O)n1c(C([NH-])=O)cc2ccc(NCCN)cc21 (optimized conformer: 76.65240827978477 kcal/mol)

>  <smiles>  (3) 
CC(C)(C)CC(=O)n1c(C(N)=O)cc2ccc(NCCN)cc21

>  <score_type>  (3) 
oracle

>  <origin>  (3) 
adg

>  <m_score__min__energy>  (3) 
-7.6699999999999999

>  <m_primary>  (3) 
energy

$$$$
3:0
     RDKit          3D

 51 55  0  0  0  0  0  0  0  0999 V2000
  150.8170  151.2460  132.6300 N   0  0  0  0  0  0  0  0  0  0  0  0
  149.4850  151.4140  132.1960 C   0  0  0  0  0  0  0  0  0  0  0  0
  149.0540  150.4930  131.4270 O   0  0  0  0  0  0  0  0  0  0  0  0
  148.5770  152.4750  132.5130 C   0  0  0  0  0  0  0  0  0  0  0  0
  149.0140  153.7490  132.8690 C   0  0  0  0  0  0  0  0  0  0  0  0
  147.9390  154.5680  133.1190 C   0  0  0  0  0  0  0  0  0  0  0  0
  147.8700  155.8910  133.4970 C   0  0  0  0  0  0  0  0  0  0  0  0
  146.6450  156.4930  133.6880 C   0  0  0  0  0  0  0  0  0  0  0  0
  145.5200  155.7250  133.4880 C   0  0  0  0  0  0  0  0  0  0  0  0
  144.2050  156.3340  133.6830 C   0  0  0  0  0  0  0  0  0  0  0  0
  143.7170  156.8510  134.8240 N   0  0  0  0  0  0  0  0  0  0  0  0
  142.4700  157.3260  134.6280 C   0  0  0  0  0  0  0  0  0  0  0  0
  141.5110  157.9440  135.4040 C   0  0  0  0  0  0  0  0  0  0  0  0
  140.2890  158.3190  134.8850 C   0  0  0  0  0  0  0  0  0  0  0  0
  139.9670  158.0900  133.5420 C   0  0  0  0  0  0  0  0  0  0  0  0
  138.6560  158.5090  133.0250 C   0  0  0  0  0  0  0  0  0  0  0  0
  138.5670  158.6640  131.6110 N   0  0  0  0  0  0  0  0  0  0  0  0
  137.2260  158.9880  131.2400 C   0  0  0  0  0  0  0  0  0  0  0  0
  137.3040  160.4080  130.7540 C   0  0  0  0  0  0  0  0  0  0  0  0
  138.6480  160.4180  130.0270 C   0  0  0  0  0  0  0  0  0  0  0  0
  139.4710  159.5840  131.0090 C   0  0  0  0  0  0  0  0  0  0  0  0
  140.9450  157.4720  132.7950 C   0  0  0  0  0  0  0  0  0  0  0  0
  142.1700  157.0930  133.3070 C   0  0  0  0  0  0  0  0  0  0  0  0
  143.2420  156.4840  132.7370 N   0  0  0  0  0  0  0  0  0  0  0  0
  145.6040  154.3950  133.1080 C   0  0  0  0  0  0  0  0  0  0  0  0
  146.8260  153.7770  132.9110 C   0  0  0  0  0  0  0  0  0  0  0  0
  147.2290  152.5280  132.5500 N   0  0  0  0  0  0  0  0  0  0  0  0
  146.3120  151.4970  132.2710 C   0  0  0  0  0  0  0  0  0  0  0  0
  145.0770  151.7870  132.2380 O   0  0  0  0  0  0  0  0  0  0  0  0
  146.6120  150.1750  132.0250 O   0  0  0  0  0  0  0  0  0  0  0  0
  150.9720  150.7100  133.5120 H   0  0  0  0  0  0  0  0  0  0  0  0
  151.6070  151.6540  132.0540 H   0  0  0  0  0  0  0  0  0  0  0  0
  150.0681  154.0554  132.9398 H   0  0  0  0  0  0  0  0  0  0  0  0
  148.7945  156.4680  133.6466 H   0  0  0  0  0  0  0  0  0  0  0  0
  146.5690  157.5482  133.9892 H   0  0  0  0  0  0  0  0  0  0  0  0
  141.7264  158.1429  136.4642 H   0  0  0  0  0  0  0  0  0  0  0  0
  139.5527  158.8079  135.5398 H   0  0  0  0  0  0  0  0  0  0  0  0
  137.9164  157.7536  133.3288 H   0  0  0  0  0  0  0  0  0  0  0  0
  138.4743  159.5085  133.4469 H   0  0  0  0  0  0  0  0  0  0  0  0
  136.8720  158.3217  130.4395 H   0  0  0  0  0  0  0  0  0  0  0  0
  136.5201  158.8694  132.0753 H   0  0  0  0  0  0  0  0  0  0  0  0
  136.4764  160.6424  130.0684 H   0  0  0  0  0  0  0  0  0  0  0  0
  137.2263  161.1574  131.5555 H   0  0  0  0  0  0  0  0  0  0  0  0
  138.5831  159.9416  129.0376 H   0  0  0  0  0  0  0  0  0  0  0  0
  139.0535  161.4162  129.8054 H   0  0  0  0  0  0  0  0  0  0  0  0
  140.2657  159.0423  130.4752 H   0  0  0  0  0  0  0  0  0  0  0  0
  139.9546  160.2203  131.7648 H   0  0  0  0  0  0  0  0  0  0  0  0
  140.7393  157.2695  131.7336 H   0  0  0  0  0  0  0  0  0  0  0  0
  143.2870  156.1940  131.7400 H   0  0  0  0  0  0  0  0  0  0  0  0
  144.6791  153.8182  132.9598 H   0  0  0  0  0  0  0  0  0  0  0  0
  146.9930  149.8250  131.1640 H   0  0  0  0  0  0  0  0  0  0  0  0
  1  2  1  0
  2  3  2  0
  2  4  1  0
  4  5  2  0
  5  6  1  0
  6  7  2  0
  7  8  1  0
  8  9  2  0
  9 10  1  0
 10 11  2  0
 11 12  1  0
 12 13  2  0
 13 14  1  0
 14 15  2  0
 15 16  1  0
 16 17  1  0
 17 18  1  0
 18 19  1  0
 19 20  1  0
 20 21  1  0
 15 22  1  0
 22 23  2  0
 23 24  1  0
  9 25  1  0
 25 26  2  0
 26 27  1  0
 27 28  1  0
 28 29  2  0
 28 30  1  0
 27  4  1  0
 26  6  1  0
 24 10  1  0
 23 12  1  0
 21 17  1  0
  1 31  1  0
  1 32  1  0
  5 33  1  0
  7 34  1  0
  8 35  1  0
 13 36  1  0
 14 37  1  0
 16 38  1  0
 16 39  1  0
 18 40  1  0
 18 41  1  0
 19 42  1  0
 19 43  1  0
 20 44  1  0
 20 45  1  0
 21 46  1  0
 21 47  1  0
 22 48  1  0
 24 49  1  0
 25 50  1  0
 30 51  1  0
M  END
>  <smiles>  (4) 
NC(=O)c1cc2ccc(-c3nc4ccc(CN5CCCC5)cc4[nH]3)cc2n1C(=O)O

>  <score_type>  (4) 
oracle

>  <origin>  (4) 
adg

>  <m_score__min__energy>  (4) 
-10.59

>  <m_primary>  (4) 
energy

$$$$
4:0
     RDKit          3D

 36 38  0  0  0  0  0  0  0  0999 V2000
  143.3180  161.7830  133.7200 N   0  0  0  0  0  0  0  0  0  0  0  0
  144.4020  160.8670  133.8520 C   0  0  0  0  0  0  0  0  0  0  0  0
  145.5530  161.3110  134.1130 O   0  0  0  0  0  0  0  0  0  0  0  0
  144.1900  159.4100  133.7280 C   0  0  0  0  0  0  0  0  0  0  0  0
  145.1670  158.5230  133.2800 C   0  0  0  0  0  0  0  0  0  0  0  0
  144.6000  157.2720  133.3820 C   0  0  0  0  0  0  0  0  0  0  0  0
  145.1270  156.0210  133.0790 C   0  0  0  0  0  0  0  0  0  0  0  0
  144.3070  154.8960  133.2760 C   0  0  0  0  0  0  0  0  0  0  0  0
  142.9750  155.0420  133.7480 C   0  0  0  0  0  0  0  0  0  0  0  0
  142.1210  153.8240  133.9960 C   0  0  0  0  0  0  0  0  0  0  0  0
  142.6880  152.7040  133.4130 F   0  0  0  0  0  0  0  0  0  0  0  0
  142.0110  153.6150  135.3570 F   0  0  0  0  0  0  0  0  0  0  0  0
  140.8570  153.9980  133.4610 F   0  0  0  0  0  0  0  0  0  0  0  0
  142.4870  156.3300  134.0670 C   0  0  0  0  0  0  0  0  0  0  0  0
  143.3300  157.4280  133.8700 C   0  0  0  0  0  0  0  0  0  0  0  0
  143.0600  158.7330  134.0800 N   0  0  0  0  0  0  0  0  0  0  0  0
  141.8120  159.2700  134.5470 C   0  0  0  0  0  0  0  0  0  0  0  0
  141.8140  160.0400  135.5450 O   0  0  0  0  0  0  0  0  0  0  0  0
  140.5270  158.9280  133.8860 C   0  0  0  0  0  0  0  0  0  0  0  0
  140.1160  159.6620  132.7580 C   0  0  0  0  0  0  0  0  0  0  0  0
  138.9140  159.3570  132.0920 C   0  0  0  0  0  0  0  0  0  0  0  0
  138.5130  160.1080  130.9310 N   0  0  0  0  0  0  0  0  0  0  0  0
  137.3210  160.4390  130.7680 O   0  0  0  0  0  0  0  0  0  0  0  0
  139.4380  160.4770  129.9820 O   0  0  0  0  0  0  0  0  0  0  0  0
  138.1180  158.3050  132.5750 C   0  0  0  0  0  0  0  0  0  0  0  0
  138.5080  157.5820  133.7020 C   0  0  0  0  0  0  0  0  0  0  0  0
  139.6990  157.8890  134.3640 C   0  0  0  0  0  0  0  0  0  0  0  0
  140.0330  157.1700  135.5060 O   0  0  0  0  0  0  0  0  0  0  0  0
  142.3730  161.5560  134.1020 H   0  0  0  0  0  0  0  0  0  0  0  0
  146.1771  158.7697  132.9210 H   0  0  0  0  0  0  0  0  0  0  0  0
  146.1532  155.9151  132.6972 H   0  0  0  0  0  0  0  0  0  0  0  0
  144.7012  153.8915  133.0623 H   0  0  0  0  0  0  0  0  0  0  0  0
  141.4688  156.4650  134.4607 H   0  0  0  0  0  0  0  0  0  0  0  0
  140.7439  160.4872  132.3909 H   0  0  0  0  0  0  0  0  0  0  0  0
  137.1800  158.0496  132.0603 H   0  0  0  0  0  0  0  0  0  0  0  0
  137.8729  156.7638  134.0724 H   0  0  0  0  0  0  0  0  0  0  0  0
  1  2  1  0
  2  3  2  0
  2  4  1  0
  4  5  2  0
  5  6  1  0
  6  7  2  0
  7  8  1  0
  8  9  2  0
  9 10  1  0
 10 11  1  0
 10 12  1  0
 10 13  1  0
  9 14  1  0
 14 15  2  0
 15 16  1  0
 16 17  1  0
 17 18  2  0
 17 19  1  0
 19 20  2  0
 20 21  1  0
 21 22  1  0
 22 23  2  0
 22 24  1  0
 21 25  2  0
 25 26  1  0
 26 27  2  0
 27 28  1  0
 16  4  1  0
 27 19  1  0
 15  6  1  0
  1 29  1  0
  5 30  1  0
  7 31  1  0
  8 32  1  0
 14 33  1  0
 20 34  1  0
 25 35  1  0
 26 36  1  0
M  CHG  4   1  -1  22   1  24  -1  28  -1
M  END
>  <UniqueID>  (5) 
4

>  <SMILES>  (5) 
[NH-]C(=O)c1cc2ccc(C(F)(F)F)cc2n1C(=O)c1cc([N+](=O)[O-])ccc1[O-]

>  <Energy>  (5) 
83.90535855733849

>  <Genealogy>  (5) 
[NH-]C(=O)c1cc2ccc(C(F)(F)F)cc2n1C(=O)c1cc([N+](=O)[O-])ccc1[O-] (protonated)
[NH-]C(=O)c1cc2ccc(C(F)(F)F)cc2n1C(=O)c1cc([N+](=O)[O-])ccc1[O-] (3D coordinates assigned)
[NH-]C(=O)c1cc2ccc(C(F)(F)F)cc2n1C(=O)c1cc([N+](=O)[O-])ccc1[O-] (optimized conformer: 83.90535855733849 kcal/mol)

>  <smiles>  (5) 
NC(=O)c1cc2ccc(C(F)(F)F)cc2n1C(=O)c1cc([N+](=O)[O-])ccc1O

>  <score_type>  (5) 
oracle

>  <origin>  (5) 
adg

>  <m_score__min__energy>  (5) 
-7.3899999999999997

>  <m_primary>  (5) 
energy

$$$$
5:0
     RDKit          3D

 46 47  0  0  0  0  0  0  0  0999 V2000
  148.1350  154.8160  132.6480 C   0  0  0  0  0  0  0  0  0  0  0  0
  146.9700  155.6830  132.5550 N   0  0  0  0  0  0  0  0  0  0  0  0
  146.4240  156.3730  133.6830 C   0  0  0  0  0  0  0  0  0  0  0  0
  146.3960  155.8010  134.8050 O   0  0  0  0  0  0  0  0  0  0  0  0
  145.9410  157.7250  133.5430 N   0  0  0  0  0  0  0  0  0  0  0  0
  146.5990  158.7860  132.9970 C   0  0  0  0  0  0  0  0  0  0  0  0
  147.9890  158.7840  132.5130 C   0  0  0  0  0  0  0  0  0  0  0  0
  148.4110  157.8620  131.5090 N   0  0  0  0  0  0  0  0  0  0  0  0
  148.8300  159.5580  133.0420 O   0  0  0  0  0  0  0  0  0  0  0  0
  145.7690  159.8990  132.9150 C   0  0  0  0  0  0  0  0  0  0  0  0
  144.5740  159.4990  133.4610 C   0  0  0  0  0  0  0  0  0  0  0  0
  143.4140  160.2310  133.6970 C   0  0  0  0  0  0  0  0  0  0  0  0
  142.3480  159.5860  134.3460 C   0  0  0  0  0  0  0  0  0  0  0  0
  142.4580  158.2300  134.7390 C   0  0  0  0  0  0  0  0  0  0  0  0
  141.3370  157.5690  135.4980 C   0  0  0  0  0  0  0  0  0  0  0  0
  139.9650  158.1240  135.0860 C   0  0  0  0  0  0  0  0  0  0  0  0
  139.5380  157.6310  133.7350 C   0  0  0  0  0  0  0  0  0  0  0  0
  138.7350  156.6620  133.6460 O   0  0  0  0  0  0  0  0  0  0  0  0
  140.0490  158.2440  132.5860 O   0  0  0  0  0  0  0  0  0  0  0  0
  139.7840  159.6030  132.2380 C   0  0  0  0  0  0  0  0  0  0  0  0
  138.3800  159.7500  131.6190 C   0  0  2  0  0  0  0  0  0  0  0  0
  137.8730  158.4880  131.2620 O   0  0  0  0  0  0  0  0  0  0  0  0
  138.3730  160.6840  130.3950 C   0  0  0  0  0  0  0  0  0  0  0  0
  137.2610  160.4330  129.5780 O   0  0  0  0  0  0  0  0  0  0  0  0
  143.6510  157.5180  134.4790 C   0  0  0  0  0  0  0  0  0  0  0  0
  144.6980  158.1820  133.8280 C   0  0  0  0  0  0  0  0  0  0  0  0
  148.3754  154.6371  133.7064 H   0  0  0  0  0  0  0  0  0  0  0  0
  147.9189  153.8572  132.1539 H   0  0  0  0  0  0  0  0  0  0  0  0
  148.9913  155.2983  132.1539 H   0  0  0  0  0  0  0  0  0  0  0  0
  149.3940  157.8790  131.1600 H   0  0  0  0  0  0  0  0  0  0  0  0
  147.7610  157.1270  131.1520 H   0  0  0  0  0  0  0  0  0  0  0  0
  146.0166  160.8878  132.5014 H   0  0  0  0  0  0  0  0  0  0  0  0
  143.3343  161.2828  133.3848 H   0  0  0  0  0  0  0  0  0  0  0  0
  141.4196  160.1392  134.5507 H   0  0  0  0  0  0  0  0  0  0  0  0
  141.3591  156.4879  135.2962 H   0  0  0  0  0  0  0  0  0  0  0  0
  141.4815  157.7739  136.5690 H   0  0  0  0  0  0  0  0  0  0  0  0
  139.2179  157.8106  135.8301 H   0  0  0  0  0  0  0  0  0  0  0  0
  140.0445  159.2200  135.0365 H   0  0  0  0  0  0  0  0  0  0  0  0
  139.8451  160.2248  133.1433 H   0  0  0  0  0  0  0  0  0  0  0  0
  140.5297  159.9273  131.4973 H   0  0  0  0  0  0  0  0  0  0  0  0
  137.7349  160.2066  132.3841 H   0  0  0  0  0  0  0  0  0  0  0  0
  137.9780  157.8890  132.0470 H   0  0  0  0  0  0  0  0  0  0  0  0
  138.3381  161.7281  130.7394 H   0  0  0  0  0  0  0  0  0  0  0  0
  139.2864  160.5018  129.8097 H   0  0  0  0  0  0  0  0  0  0  0  0
  137.0760  159.4600  129.6300 H   0  0  0  0  0  0  0  0  0  0  0  0
  143.7547  156.4655  134.7814 H   0  0  0  0  0  0  0  0  0  0  0  0
  1  2  1  0
  2  3  1  0
  3  4  2  0
  3  5  1  0
  5  6  1  0
  6  7  1  0
  7  8  1  0
  7  9  2  0
  6 10  2  0
 10 11  1  0
 11 12  2  0
 12 13  1  0
 13 14  2  0
 14 15  1  0
 15 16  1  0
 16 17  1  0
 17 18  2  0
 17 19  1  0
 19 20  1  0
 20 21  1  0
 21 22  1  0
 21 23  1  0
 23 24  1  0
 14 25  1  0
 25 26  2  0
 26  5  1  0
 26 11  1  0
  1 27  1  0
  1 28  1  0
  1 29  1  0
  8 30  1  0
  8 31  1  0
 10 32  1  0
 12 33  1  0
 13 34  1  0
 15 35  1  0
 15 36  1  0
 16 37  1  0
 16 38  1  0
 20 39  1  0
 20 40  1  0
 21 41  1  1
 22 42  1  0
 23 43  1  0
 23 44  1  0
 24 45  1  0
 25 46  1  0
M  CHG  1   2  -1
M  END
>  <UniqueID>  (6) 
5

>  <SMILES>  (6) 
C[N-]C(=O)n1c(C(N)=O)cc2ccc(CCC(=O)OC[C@H](O)CO)cc21

>  <Energy>  (6) 
74.80636735729371

>  <Genealogy>  (6) 
C[N-]C(=O)n1c(C(N)=O)cc2ccc(CCC(=O)OCC(O)CO)cc21 (protonated)
C[N-]C(=O)n1c(C(N)=O)cc2ccc(CCC(=O)OC[C@H](O)CO)cc21 (chirality)
C[N-]C(=O)n1c(C(N)=O)cc2ccc(CCC(=O)OC[C@H](O)CO)cc21 (3D coordinates assigned)
C[N-]C(=O)n1c(C(N)=O)cc2ccc(CCC(=O)OC[C@H](O)CO)cc21 (optimized conformer: 74.80636735729371 kcal/mol)

>  <smiles>  (6) 
CNC(=O)n1c(C(N)=O)cc2ccc(CCC(=O)OCC(O)CO)cc21

>  <score_type>  (6) 
oracle

>  <origin>  (6) 
adg

>  <m_score__min__energy>  (6) 
-6.6500000000000004

>  <m_primary>  (6) 
energy

$$$$
6:0
     RDKit          3D

 43 45  0  0  0  0  0  0  0  0999 V2000
  141.7330  154.1840  135.3190 C   0  0  0  0  0  0  0  0  0  0  0  0
  142.0420  155.6170  135.2960 N   0  0  0  0  0  0  0  0  0  0  0  0
  142.1010  156.3860  136.5420 C   0  0  0  0  0  0  0  0  0  0  0  0
  142.3390  156.2570  134.0400 C   0  0  0  0  0  0  0  0  0  0  0  0
  142.4380  155.5730  132.9860 O   0  0  0  0  0  0  0  0  0  0  0  0
  142.5250  157.6770  133.9690 N   0  0  0  0  0  0  0  0  0  0  0  0
  141.5790  158.6500  134.0650 C   0  0  0  0  0  0  0  0  0  0  0  0
  140.1240  158.4300  134.2090 C   0  0  0  0  0  0  0  0  0  0  0  0
  139.5140  158.3660  135.4950 N   0  0  0  0  0  0  0  0  0  0  0  0
  139.4100  158.2840  133.1810 O   0  0  0  0  0  0  0  0  0  0  0  0
  142.1700  159.9100  133.9710 C   0  0  0  0  0  0  0  0  0  0  0  0
  143.5180  159.6710  133.8160 C   0  0  0  0  0  0  0  0  0  0  0  0
  144.5790  160.5600  133.6700 C   0  0  0  0  0  0  0  0  0  0  0  0
  145.8710  160.0240  133.5250 C   0  0  0  0  0  0  0  0  0  0  0  0
  146.0780  158.6210  133.5360 C   0  0  0  0  0  0  0  0  0  0  0  0
  147.4580  158.0530  133.3490 C   0  0  0  0  0  0  0  0  0  0  0  0
  148.4590  159.1600  133.2100 C   0  0  0  0  0  0  0  0  0  0  0  0
  148.8590  159.7750  134.2330 O   0  0  0  0  0  0  0  0  0  0  0  0
  148.9940  159.4940  131.9310 N   0  0  0  0  0  0  0  0  0  0  0  0
  148.8550  159.0480  130.5330 C   0  0  0  0  0  0  0  0  0  0  0  0
  149.8310  160.0200  129.9590 C   0  0  0  0  0  0  0  0  0  0  0  0
  149.9620  160.4580  131.3810 C   0  0  0  0  0  0  0  0  0  0  0  0
  144.9760  157.7510  133.6930 C   0  0  0  0  0  0  0  0  0  0  0  0
  143.7040  158.3140  133.8230 C   0  0  0  0  0  0  0  0  0  0  0  0
  141.6592  153.8415  136.3617 H   0  0  0  0  0  0  0  0  0  0  0  0
  140.7760  154.0070  134.8063 H   0  0  0  0  0  0  0  0  0  0  0  0
  142.5320  153.6283  134.8063 H   0  0  0  0  0  0  0  0  0  0  0  0
  142.0483  155.6992  137.3996 H   0  0  0  0  0  0  0  0  0  0  0  0
  143.0450  156.9493  136.5809 H   0  0  0  0  0  0  0  0  0  0  0  0
  141.2540  157.0867  136.5809 H   0  0  0  0  0  0  0  0  0  0  0  0
  139.1820  159.2310  135.9760 H   0  0  0  0  0  0  0  0  0  0  0  0
  141.6666  160.8872  134.0119 H   0  0  0  0  0  0  0  0  0  0  0  0
  144.4122  161.6473  133.6681 H   0  0  0  0  0  0  0  0  0  0  0  0
  146.7300  160.7000  133.4018 H   0  0  0  0  0  0  0  0  0  0  0  0
  147.7180  157.4354  134.2214 H   0  0  0  0  0  0  0  0  0  0  0  0
  147.4728  157.4390  132.4364 H   0  0  0  0  0  0  0  0  0  0  0  0
  149.1627  158.0018  130.3885 H   0  0  0  0  0  0  0  0  0  0  0  0
  147.8410  159.0452  130.1065 H   0  0  0  0  0  0  0  0  0  0  0  0
  150.7344  159.5784  129.5130 H   0  0  0  0  0  0  0  0  0  0  0  0
  149.6027  160.7001  129.1251 H   0  0  0  0  0  0  0  0  0  0  0  0
  150.9776  160.3134  131.7780 H   0  0  0  0  0  0  0  0  0  0  0  0
  149.7862  161.5224  131.5956 H   0  0  0  0  0  0  0  0  0  0  0  0
  145.1157  156.6601  133.7123 H   0  0  0  0  0  0  0  0  0  0  0  0
  1  2  1  0
  2  3  1  0
  2  4  1  0
  4  5  2  0
  4  6  1  0
  6  7  1  0
  7  8  1  0
  8  9  1  0
  8 10  2  0
  7 11  2  0
 11 12  1  0
 12 13  2  0
 13 14  1  0
 14 15  2  0
 15 16  1  0
 16 17  1  0
 17 18  2  0
 17 19  1  0
 19 20  1  0
 20 21  1  0
 21 22  1  0
 15 23  1  0
 23 24  2  0
 24  6  1  0
 24 12  1  0
 22 19  1  0
  1 25  1  0
  1 26  1  0
  1 27  1  0
  3 28  1  0
  3 29  1  0
  3 30  1  0
  9 31  1  0
 11 32  1  0
 13 33  1  0
 14 34  1  0
 16 35  1  0
 16 36  1  0
 20 37  1  0
 20 38  1  0
 21 39  1  0
 21 40  1  0
 22 41  1  0
 22 42  1  0
 23 43  1  0
M  CHG  1   9  -1
M  END
>  <UniqueID>  (7) 
6

>  <SMILES>  (7) 
CN(C)C(=O)n1c(C([NH-])=O)cc2ccc(CC(=O)N3CCC3)cc21

>  <Energy>  (7) 
120.68151922189548

>  <Genealogy>  (7) 
CN(C)C(=O)n1c(C([NH-])=O)cc2ccc(CC(=O)N3CCC3)cc21 (protonated)
CN(C)C(=O)n1c(C([NH-])=O)cc2ccc(CC(=O)N3CCC3)cc21 (3D coordinates assigned)
CN(C)C(=O)n1c(C([NH-])=O)cc2ccc(CC(=O)N3CCC3)cc21 (nonaromatic ring conformer: 120.68151922189548 kcal/mol)

>  <smiles>  (7) 
CN(C)C(=O)n1c(C(N)=O)cc2ccc(CC(=O)N3CCC3)cc21

>  <score_type>  (7) 
oracle

>  <origin>  (7) 
adg

>  <m_score__min__energy>  (7) 
-7.6900000000000004

>  <m_primary>  (7) 
energy

$$$$
7:0
     RDKit          3D

 43 44  0  0  0  0  0  0  0  0999 V2000
  147.3150  151.5120  132.2430 C   0  0  0  0  0  0  0  0  0  0  0  0
  148.6590  151.9270  132.8720 C   0  0  0  0  0  0  0  0  0  0  0  0
  149.5950  152.4240  131.7600 C   0  0  0  0  0  0  0  0  0  0  0  0
  149.3160  150.7330  133.5860 C   0  0  0  0  0  0  0  0  0  0  0  0
  148.4770  153.0160  133.7870 O   0  0  0  0  0  0  0  0  0  0  0  0
  148.3270  154.3720  133.4550 C   0  0  0  0  0  0  0  0  0  0  0  0
  149.1930  154.9790  132.7700 O   0  0  0  0  0  0  0  0  0  0  0  0
  147.1010  155.0960  133.9120 C   0  0  0  0  0  0  0  0  0  0  0  0
  146.6230  156.0190  132.8310 C   0  0  0  0  0  0  0  0  0  0  0  0
  146.6160  155.6260  131.6340 O   0  0  0  0  0  0  0  0  0  0  0  0
  146.2820  157.3820  133.1340 N   0  0  0  0  0  0  0  0  0  0  0  0
  147.0550  158.4920  132.9800 C   0  0  0  0  0  0  0  0  0  0  0  0
  148.4990  158.5060  132.6720 C   0  0  0  0  0  0  0  0  0  0  0  0
  149.0930  157.5010  131.8480 N   0  0  0  0  0  0  0  0  0  0  0  0
  149.2320  159.3980  133.1790 O   0  0  0  0  0  0  0  0  0  0  0  0
  146.2990  159.6450  133.1790 C   0  0  0  0  0  0  0  0  0  0  0  0
  145.0290  159.2020  133.4700 C   0  0  0  0  0  0  0  0  0  0  0  0
  143.8610  159.9190  133.7050 C   0  0  0  0  0  0  0  0  0  0  0  0
  142.6740  159.1970  133.9120 C   0  0  0  0  0  0  0  0  0  0  0  0
  142.6740  157.7780  133.8900 C   0  0  0  0  0  0  0  0  0  0  0  0
  141.3810  157.0180  134.0460 C   0  0  0  0  0  0  0  0  0  0  0  0
  140.6220  157.6080  135.0380 F   0  0  0  0  0  0  0  0  0  0  0  0
  141.6300  155.6990  134.3910 F   0  0  0  0  0  0  0  0  0  0  0  0
  140.6630  157.0260  132.8610 F   0  0  0  0  0  0  0  0  0  0  0  0
  143.8790  157.0860  133.6220 C   0  0  0  0  0  0  0  0  0  0  0  0
  145.0470  157.8330  133.4370 C   0  0  0  0  0  0  0  0  0  0  0  0
  146.5907  151.2883  133.0401 H   0  0  0  0  0  0  0  0  0  0  0  0
  146.9324  152.3339  131.6199 H   0  0  0  0  0  0  0  0  0  0  0  0
  147.4624  150.6175  131.6199 H   0  0  0  0  0  0  0  0  0  0  0  0
  150.4815  152.8947  132.2101 H   0  0  0  0  0  0  0  0  0  0  0  0
  149.9081  151.5733  131.1368 H   0  0  0  0  0  0  0  0  0  0  0  0
  149.0657  153.1598  131.1368 H   0  0  0  0  0  0  0  0  0  0  0  0
  149.2405  150.8701  134.6748 H   0  0  0  0  0  0  0  0  0  0  0  0
  148.8017  149.8046  133.2968 H   0  0  0  0  0  0  0  0  0  0  0  0
  150.3755  150.6706  133.2968 H   0  0  0  0  0  0  0  0  0  0  0  0
  146.3114  154.3663  134.1446 H   0  0  0  0  0  0  0  0  0  0  0  0
  147.3400  155.6830  134.8111 H   0  0  0  0  0  0  0  0  0  0  0  0
  148.5590  156.6560  131.5530 H   0  0  0  0  0  0  0  0  0  0  0  0
  150.1040  157.5650  131.5940 H   0  0  0  0  0  0  0  0  0  0  0  0
  146.6438  160.6877  133.1168 H   0  0  0  0  0  0  0  0  0  0  0  0
  143.8664  161.0188  133.7281 H   0  0  0  0  0  0  0  0  0  0  0  0
  141.7334  159.7378  134.0933 H   0  0  0  0  0  0  0  0  0  0  0  0
  143.8966  155.9879  133.5607 H   0  0  0  0  0  0  0  0  0  0  0  0
  1  2  1  0
  2  3  1  0
  2  4  1  0
  2  5  1  0
  5  6  1  0
  6  7  2  0
  6  8  1  0
  8  9  1  0
  9 10  2  0
  9 11  1  0
 11 12  1  0
 12 13  1  0
 13 14  1  0
 13 15  2  0
 12 16  2  0
 16 17  1  0
 17 18  2  0
 18 19  1  0
 19 20  2  0
 20 21  1  0
 21 22  1  0
 21 23  1  0
 21 24  1  0
 20 25  1  0
 25 26  2  0
 26 11  1  0
 26 17  1  0
  1 27  1  0
  1 28  1  0
  1 29  1  0
  3 30  1  0
  3 31  1  0
  3 32  1  0
  4 33  1  0
  4 34  1  0
  4 35  1  0
  8 36  1  0
  8 37  1  0
 14 38  1  0
 14 39  1  0
 16 40  1  0
 18 41  1  0
 19 42  1  0
 25 43  1  0
M  END
>  <UniqueID>  (8) 
7

>  <SMILES>  (8) 
CC(C)(C)OC(=O)CC(=O)n1c(C(N)=O)cc2ccc(C(F)(F)F)cc21

>  <Energy>  (8) 
73.7472746632532

>  <Genealogy>  (8) 
CC(C)(C)OC(=O)CC(=O)n1c(C(N)=O)cc2ccc(C(F)(F)F)cc21 (3D coordinates assigned)
CC(C)(C)OC(=O)CC(=O)n1c(C(N)=O)cc2ccc(C(F)(F)F)cc21 (optimized conformer: 73.7472746632532 kcal/mol)

>  <smiles>  (8) 
CC(C)(C)OC(=O)CC(=O)n1c(C(N)=O)cc2ccc(C(F)(F)F)cc21

>  <score_type>  (8) 
oracle

>  <origin>  (8) 
adg

>  <m_score__min__energy>  (8) 
-6.7999999999999998

>  <m_primary>  (8) 
energy

$$$$
8:0
     RDKit          3D

 38 39  0  0  0  0  0  0  0  0999 V2000
  149.5930  160.9760  130.3550 C   0  0  0  0  0  0  0  0  0  0  0  0
  149.2990  159.5910  130.9210 C   0  0  0  0  0  0  0  0  0  0  0  0
  148.1790  159.6350  131.8010 O   0  0  0  0  0  0  0  0  0  0  0  0
  148.0940  158.8890  132.9820 C   0  0  0  0  0  0  0  0  0  0  0  0
  148.9020  159.1020  133.9280 O   0  0  0  0  0  0  0  0  0  0  0  0
  147.0960  157.8630  133.1080 N   0  0  0  0  0  0  0  0  0  0  0  0
  145.7720  158.0200  133.3990 C   0  0  0  0  0  0  0  0  0  0  0  0
  145.0620  159.3150  133.5000 C   0  0  0  0  0  0  0  0  0  0  0  0
  145.5820  160.4840  132.8630 N   0  0  0  0  0  0  0  0  0  0  0  0
  144.0050  159.4050  134.1770 O   0  0  0  0  0  0  0  0  0  0  0  0
  145.1450  156.7790  133.4970 C   0  0  0  0  0  0  0  0  0  0  0  0
  146.1310  155.8510  133.2540 C   0  0  0  0  0  0  0  0  0  0  0  0
  146.0660  154.4610  133.2420 C   0  0  0  0  0  0  0  0  0  0  0  0
  147.2510  153.7490  132.9910 C   0  0  0  0  0  0  0  0  0  0  0  0
  148.4690  154.4340  132.7560 C   0  0  0  0  0  0  0  0  0  0  0  0
  149.7400  153.6620  132.5390 C   0  0  0  0  0  0  0  0  0  0  0  0
  149.4740  152.1970  132.6660 C   0  0  0  0  0  0  0  0  0  0  0  0
  149.6390  151.6230  133.7770 O   0  0  0  0  0  0  0  0  0  0  0  0
  149.0890  151.4680  131.5370 O   0  0  0  0  0  0  0  0  0  0  0  0
  150.0120  150.7190  130.7570 C   0  0  0  0  0  0  0  0  0  0  0  0
  148.4970  155.8460  132.7860 C   0  0  0  0  0  0  0  0  0  0  0  0
  147.2990  156.5300  133.0210 C   0  0  0  0  0  0  0  0  0  0  0  0
  149.7436  161.6856  131.1819 H   0  0  0  0  0  0  0  0  0  0  0  0
  150.5023  160.9343  129.7374 H   0  0  0  0  0  0  0  0  0  0  0  0
  148.7452  161.3073  129.7374 H   0  0  0  0  0  0  0  0  0  0  0  0
  149.0807  158.9010  130.0926 H   0  0  0  0  0  0  0  0  0  0  0  0
  150.1782  159.2445  131.4839 H   0  0  0  0  0  0  0  0  0  0  0  0
  145.0950  161.4000  132.9730 H   0  0  0  0  0  0  0  0  0  0  0  0
  146.4240  160.4380  132.2470 H   0  0  0  0  0  0  0  0  0  0  0  0
  144.0860  156.5832  133.7212 H   0  0  0  0  0  0  0  0  0  0  0  0
  145.1165  153.9360  133.4234 H   0  0  0  0  0  0  0  0  0  0  0  0
  147.2331  152.6492  132.9768 H   0  0  0  0  0  0  0  0  0  0  0  0
  150.1293  153.8760  131.5327 H   0  0  0  0  0  0  0  0  0  0  0  0
  150.4796  153.9624  133.2958 H   0  0  0  0  0  0  0  0  0  0  0  0
  150.6918  150.1673  131.4229 H   0  0  0  0  0  0  0  0  0  0  0  0
  149.4632  150.0077  130.1223 H   0  0  0  0  0  0  0  0  0  0  0  0
  150.5951  151.4025  130.1223 H   0  0  0  0  0  0  0  0  0  0  0  0
  149.4374  156.3944  132.6285 H   0  0  0  0  0  0  0  0  0  0  0  0
  1  2  1  0
  2  3  1  0
  3  4  1  0
  4  5  2  0
  4  6  1  0
  6  7  1  0
  7  8  1  0
  8  9  1  0
  8 10  2  0
  7 11  2  0
 11 12  1  0
 12 13  2  0
 13 14  1  0
 14 15  2  0
 15 16  1  0
 16 17  1  0
 17 18  2  0
 17 19  1  0
 19 20  1  0
 15 21  1  0
 21 22  2  0
 22  6  1  0
 22 12  1  0
  1 23  1  0
  1 24  1  0
  1 25  1  0
  2 26  1  0
  2 27  1  0
  9 28  1  0
  9 29  1  0
 11 30  1  0
 13 31  1  0
 14 32  1  0
 16 33  1  0
 16 34  1  0
 20 35  1  0
 20 36  1  0
 20 37  1  0
 21 38  1  0
M  END
>  <UniqueID>  (9) 
8

>  <SMILES>  (9) 
CCOC(=O)n1c(C(N)=O)cc2ccc(CC(=O)OC)cc21

>  <Energy>  (9) 
68.25352879037494

>  <Genealogy>  (9) 
CCOC(=O)n1c(C(N)=O)cc2ccc(CC(=O)OC)cc21 (3D coordinates assigned)
CCOC(=O)n1c(C(N)=O)cc2ccc(CC(=O)OC)cc21 (optimized conformer: 68.25352879037494 kcal/mol)

>  <smiles>  (9) 
CCOC(=O)n1c(C(N)=O)cc2ccc(CC(=O)OC)cc21

>  <score_type>  (9) 
oracle

>  <origin>  (9) 
adg

>  <m_score__min__energy>  (9) 
-6.4100000000000001

>  <m_primary>  (9) 
energy

$$$$
9:0
     RDKit          3D

 24 25  0  0  0  0  0  0  0  0999 V2000
  141.3800  160.5020  134.0800 N   0  0  0  0  0  0  0  0  0  0  0  0
  142.3300  159.7310  134.8130 C   0  0  0  0  0  0  0  0  0  0  0  0
  142.0440  159.3450  135.9770 O   0  0  0  0  0  0  0  0  0  0  0  0
  143.6120  159.3540  134.1840 C   0  0  0  0  0  0  0  0  0  0  0  0
  143.9880  158.0350  133.9370 C   0  0  0  0  0  0  0  0  0  0  0  0
  145.2670  158.1070  133.4350 C   0  0  0  0  0  0  0  0  0  0  0  0
  146.1140  157.0950  133.0000 C   0  0  0  0  0  0  0  0  0  0  0  0
  147.3730  157.4600  132.4930 C   0  0  0  0  0  0  0  0  0  0  0  0
  147.7660  158.8220  132.4400 C   0  0  0  0  0  0  0  0  0  0  0  0
  149.0920  159.2050  131.8360 C   0  0  0  0  0  0  0  0  0  0  0  0
  149.0170  159.2120  130.4540 F   0  0  0  0  0  0  0  0  0  0  0  0
  150.0530  158.2930  132.2310 F   0  0  0  0  0  0  0  0  0  0  0  0
  149.4720  160.4690  132.2540 F   0  0  0  0  0  0  0  0  0  0  0  0
  146.8640  159.8240  132.8690 C   0  0  0  0  0  0  0  0  0  0  0  0
  145.6240  159.4300  133.3860 C   0  0  0  0  0  0  0  0  0  0  0  0
  144.6170  160.2100  133.8400 N   0  0  0  0  0  0  0  0  0  0  0  0
  144.5970  161.6460  133.8710 C   0  0  0  0  0  0  0  0  0  0  0  0
  143.6320  162.2800  133.3680 O   0  0  0  0  0  0  0  0  0  0  0  0
  145.6280  162.3500  134.4810 O   0  0  0  0  0  0  0  0  0  0  0  0
  141.6800  161.3290  133.5170 H   0  0  0  0  0  0  0  0  0  0  0  0
  143.3890  157.1283  134.1073 H   0  0  0  0  0  0  0  0  0  0  0  0
  145.8082  156.0396  133.0509 H   0  0  0  0  0  0  0  0  0  0  0  0
  148.0612  156.6809  132.1333 H   0  0  0  0  0  0  0  0  0  0  0  0
  147.1310  160.8888  132.7979 H   0  0  0  0  0  0  0  0  0  0  0  0
  1  2  1  0
  2  3  2  0
  2  4  1  0
  4  5  2  0
  5  6  1  0
  6  7  2  0
  7  8  1  0
  8  9  2  0
  9 10  1  0
 10 11  1  0
 10 12  1  0
 10 13  1  0
  9 14  1  0
 14 15  2  0
 15 16  1  0
 16 17  1  0
 17 18  2  0
 17 19  1  0
 16  4  1  0
 15  6  1  0
  1 20  1  0
  5 21  1  0
  7 22  1  0
  8 23  1  0
 14 24  1  0
M  CHG  2   1  -1  19  -1
M  END
>  <UniqueID>  (10) 
9

>  <SMILES>  (10) 
[NH-]C(=O)c1cc2ccc(C(F)(F)F)cc2n1C(=O)[O-]

>  <Energy>  (10) 
64.66960723828221

>  <Genealogy>  (10) 
[NH-]C(=O)c1cc2ccc(C(F)(F)F)cc2n1C(=O)[O-] (protonated)
[NH-]C(=O)c1cc2ccc(C(F)(F)F)cc2n1C(=O)[O-] (3D coordinates assigned)
[NH-]C(=O)c1cc2ccc(C(F)(F)F)cc2n1C(=O)[O-] (optimized conformer: 64.66960723828221 kcal/mol)

>  <smiles>  (10) 
NC(=O)c1cc2ccc(C(F)(F)F)cc2n1C(=O)O

>  <score_type>  (10) 
oracle

>  <origin>  (10) 
adg

>  <m_score__min__energy>  (10) 
-5.0700000000000003

>  <m_primary>  (10) 
energy

$$$$
10:0
     RDKit          3D

 49 52  0  0  0  0  0  0  0  0999 V2000
  141.0420  154.4730  133.3720 C   0  0  0  0  0  0  0  0  0  0  0  0
  142.2020  153.4700  133.5580 C   0  0  0  0  0  0  0  0  0  0  0  0
  142.8560  153.7330  134.9330 C   0  0  0  0  0  0  0  0  0  0  0  0
  141.6710  152.0140  133.5100 C   0  0  0  0  0  0  0  0  0  0  0  0
  142.3860  151.2310  132.5890 O   0  0  0  0  0  0  0  0  0  0  0  0
  143.2300  153.6640  132.5090 N   0  0  0  0  0  0  0  0  0  0  0  0
  144.4370  154.4240  132.6890 C   0  0  0  0  0  0  0  0  0  0  0  0
  145.6780  153.7460  132.7710 C   0  0  0  0  0  0  0  0  0  0  0  0
  146.8730  154.4590  132.9740 C   0  0  0  0  0  0  0  0  0  0  0  0
  146.7940  155.8440  133.0920 C   0  0  0  0  0  0  0  0  0  0  0  0
  147.7860  156.7770  133.2880 C   0  0  0  0  0  0  0  0  0  0  0  0
  147.1340  158.0110  133.3270 C   0  0  0  0  0  0  0  0  0  0  0  0
  147.8060  159.3020  133.5940 C   0  0  0  0  0  0  0  0  0  0  0  0
  147.4210  160.4880  132.8950 N   0  0  0  0  0  0  0  0  0  0  0  0
  148.7450  159.3650  134.4310 O   0  0  0  0  0  0  0  0  0  0  0  0
  145.7910  157.8410  133.1640 N   0  0  0  0  0  0  0  0  0  0  0  0
  144.7770  158.8600  133.1280 C   0  0  0  0  0  0  0  0  0  0  0  0
  145.0610  160.0130  132.7080 O   0  0  0  0  0  0  0  0  0  0  0  0
  143.4040  158.5650  133.5630 C   0  0  0  0  0  0  0  0  0  0  0  0
  143.0190  158.5630  134.8680 N   0  0  0  0  0  0  0  0  0  0  0  0
  141.7080  158.2810  134.7700 C   0  0  0  0  0  0  0  0  0  0  0  0
  140.7770  158.1680  135.7980 C   0  0  0  0  0  0  0  0  0  0  0  0
  139.4430  157.8820  135.4430 C   0  0  0  0  0  0  0  0  0  0  0  0
  139.0830  157.7200  134.0840 C   0  0  0  0  0  0  0  0  0  0  0  0
  137.7960  157.4490  133.7550 F   0  0  0  0  0  0  0  0  0  0  0  0
  140.0530  157.8400  133.0710 C   0  0  0  0  0  0  0  0  0  0  0  0
  141.3580  158.1250  133.4630 C   0  0  0  0  0  0  0  0  0  0  0  0
  142.4170  158.2980  132.7220 O   0  0  0  0  0  0  0  0  0  0  0  0
  145.6020  156.5130  133.0120 C   0  0  0  0  0  0  0  0  0  0  0  0
  144.4050  155.8320  132.7660 C   0  0  0  0  0  0  0  0  0  0  0  0
  140.6722  154.7928  134.3574 H   0  0  0  0  0  0  0  0  0  0  0  0
  141.4013  155.3496  132.8131 H   0  0  0  0  0  0  0  0  0  0  0  0
  140.2264  153.9909  132.8131 H   0  0  0  0  0  0  0  0  0  0  0  0
  142.1550  153.4511  135.7324 H   0  0  0  0  0  0  0  0  0  0  0  0
  143.7744  153.1343  135.0227 H   0  0  0  0  0  0  0  0  0  0  0  0
  143.1042  154.8009  135.0227 H   0  0  0  0  0  0  0  0  0  0  0  0
  141.7679  151.5660  134.5099 H   0  0  0  0  0  0  0  0  0  0  0  0
  140.6185  152.0429  133.1916 H   0  0  0  0  0  0  0  0  0  0  0  0
  142.3340  151.6940  131.7120 H   0  0  0  0  0  0  0  0  0  0  0  0
  143.2360  153.0020  131.6990 H   0  0  0  0  0  0  0  0  0  0  0  0
  145.7073  152.6506  132.6749 H   0  0  0  0  0  0  0  0  0  0  0  0
  147.8401  153.9386  133.0376 H   0  0  0  0  0  0  0  0  0  0  0  0
  148.8650  156.5902  133.3920 H   0  0  0  0  0  0  0  0  0  0  0  0
  147.9300  161.3840  133.0660 H   0  0  0  0  0  0  0  0  0  0  0  0
  146.6080  160.4960  132.2420 H   0  0  0  0  0  0  0  0  0  0  0  0
  141.0714  158.2972  136.8500 H   0  0  0  0  0  0  0  0  0  0  0  0
  138.6775  157.7842  136.2269 H   0  0  0  0  0  0  0  0  0  0  0  0
  139.7899  157.7134  132.0104 H   0  0  0  0  0  0  0  0  0  0  0  0
  143.4611  156.3816  132.6357 H   0  0  0  0  0  0  0  0  0  0  0  0
  1  2  1  0
  2  3  1  0
  2  4  1  0
  4  5  1  0
  2  6  1  0
  6  7  1  0
  7  8  2  0
  8  9  1  0
  9 10  2  0
 10 11  1  0
 11 12  2  0
 12 13  1  0
 13 14  1  0
 13 15  2  0
 12 16  1  0
 16 17  1  0
 17 18  2  0
 17 19  1  0
 19 20  2  0
 20 21  1  0
 21 22  2  0
 22 23  1  0
 23 24  2  0
 24 25  1  0
 24 26  1  0
 26 27  2  0
 27 28  1  0
 16 29  1  0
 29 30  2  0
 30  7  1  0
 29 10  1  0
 28 19  1  0
 27 21  1  0
  1 31  1  0
  1 32  1  0
  1 33  1  0
  3 34  1  0
  3 35  1  0
  3 36  1  0
  4 37  1  0
  4 38  1  0
  5 39  1  0
  6 40  1  0
  8 41  1  0
  9 42  1  0
 11 43  1  0
 14 44  1  0
 14 45  1  0
 22 46  1  0
 23 47  1  0
 26 48  1  0
 30 49  1  0
M  END
>  <UniqueID>  (11) 
10

>  <SMILES>  (11) 
CC(C)(CO)Nc1ccc2cc(C(N)=O)n(C(=O)c3nc4ccc(F)cc4o3)c2c1

>  <Energy>  (11) 
129.72304142810773

>  <Genealogy>  (11) 
CC(C)(CO)Nc1ccc2cc(C(N)=O)n(C(=O)c3nc4ccc(F)cc4o3)c2c1 (3D coordinates assigned)
CC(C)(CO)Nc1ccc2cc(C(N)=O)n(C(=O)c3nc4ccc(F)cc4o3)c2c1 (optimized conformer: 129.72304142810773 kcal/mol)

>  <smiles>  (11) 
CC(C)(CO)Nc1ccc2cc(C(N)=O)n(C(=O)c3nc4ccc(F)cc4o3)c2c1

>  <score_type>  (11) 
oracle

>  <origin>  (11) 
adg

>  <m_score__min__energy>  (11) 
-9.0099999999999998

>  <m_primary>  (11) 
energy

$$$$
11:0
     RDKit          3D

 31 32  0  0  0  0  0  0  0  0999 V2000
  145.1170  163.0320  134.2030 C   0  0  0  0  0  0  0  0  0  0  0  0
  145.4590  161.7450  134.2180 C   0  0  0  0  0  0  0  0  0  0  0  0
  144.5880  160.6860  133.6710 C   0  0  0  0  0  0  0  0  0  0  0  0
  143.3920  160.9410  133.3600 O   0  0  0  0  0  0  0  0  0  0  0  0
  145.0930  159.3520  133.5040 N   0  0  0  0  0  0  0  0  0  0  0  0
  144.4100  158.1830  133.6670 C   0  0  0  0  0  0  0  0  0  0  0  0
  143.0240  158.0670  134.1730 C   0  0  0  0  0  0  0  0  0  0  0  0
  141.9380  158.6990  133.4920 N   0  0  0  0  0  0  0  0  0  0  0  0
  142.7840  157.3870  135.2070 O   0  0  0  0  0  0  0  0  0  0  0  0
  145.2270  157.0970  133.3530 C   0  0  0  0  0  0  0  0  0  0  0  0
  146.4360  157.6410  132.9860 C   0  0  0  0  0  0  0  0  0  0  0  0
  147.6030  157.0190  132.5520 C   0  0  0  0  0  0  0  0  0  0  0  0
  148.6920  157.8350  132.1980 C   0  0  0  0  0  0  0  0  0  0  0  0
  148.5940  159.2460  132.2840 C   0  0  0  0  0  0  0  0  0  0  0  0
  149.7490  160.1100  131.8570 C   0  0  0  0  0  0  0  0  0  0  0  0
  149.4760  160.7040  130.5130 C   0  0  0  0  0  0  0  0  0  0  0  0
  149.1810  159.9610  129.5400 O   0  0  0  0  0  0  0  0  0  0  0  0
  149.5970  162.0740  130.3210 O   0  0  0  0  0  0  0  0  0  0  0  0
  147.3890  159.8420  132.7150 C   0  0  0  0  0  0  0  0  0  0  0  0
  146.3290  159.0050  133.0810 C   0  0  0  0  0  0  0  0  0  0  0  0
  145.7983  163.7870  134.6223 H   0  0  0  0  0  0  0  0  0  0  0  0
  144.1532  163.3400  133.7714 H   0  0  0  0  0  0  0  0  0  0  0  0
  146.4276  161.4601  134.6547 H   0  0  0  0  0  0  0  0  0  0  0  0
  142.0980  159.3210  132.6710 H   0  0  0  0  0  0  0  0  0  0  0  0
  140.9610  158.5770  133.8410 H   0  0  0  0  0  0  0  0  0  0  0  0
  144.9607  156.0304  133.3908 H   0  0  0  0  0  0  0  0  0  0  0  0
  147.6713  155.9230  132.4879 H   0  0  0  0  0  0  0  0  0  0  0  0
  149.6285  157.3739  131.8512 H   0  0  0  0  0  0  0  0  0  0  0  0
  149.8897  160.9179  132.5902 H   0  0  0  0  0  0  0  0  0  0  0  0
  150.6584  159.4937  131.8005 H   0  0  0  0  0  0  0  0  0  0  0  0
  147.2860  160.9362  132.7619 H   0  0  0  0  0  0  0  0  0  0  0  0
  1  2  2  0
  2  3  1  0
  3  4  2  0
  3  5  1  0
  5  6  1  0
  6  7  1  0
  7  8  1  0
  7  9  2  0
  6 10  2  0
 10 11  1  0
 11 12  2  0
 12 13  1  0
 13 14  2  0
 14 15  1  0
 15 16  1  0
 16 17  2  0
 16 18  1  0
 14 19  1  0
 19 20  2  0
 20  5  1  0
 20 11  1  0
  1 21  1  0
  1 22  1  0
  2 23  1  0
  8 24  1  0
  8 25  1  0
 10 26  1  0
 12 27  1  0
 13 28  1  0
 15 29  1  0
 15 30  1  0
 19 31  1  0
M  CHG  1  18  -1
M  END
>  <UniqueID>  (12) 
11

>  <SMILES>  (12) 
C=CC(=O)n1c(C(N)=O)cc2ccc(CC(=O)[O-])cc21

>  <Energy>  (12) 
67.55470827663682

>  <Genealogy>  (12) 
C=CC(=O)n1c(C(N)=O)cc2ccc(CC(=O)[O-])cc21 (protonated)
C=CC(=O)n1c(C(N)=O)cc2ccc(CC(=O)[O-])cc21 (3D coordinates assigned)
C=CC(=O)n1c(C(N)=O)cc2ccc(CC(=O)[O-])cc21 (optimized conformer: 67.55470827663682 kcal/mol)

>  <smiles>  (12) 
C=CC(=O)n1c(C(N)=O)cc2ccc(CC(=O)O)cc21

>  <score_type>  (12) 
oracle

>  <origin>  (12) 
adg

>  <m_score__min__energy>  (12) 
-6.9100000000000001

>  <m_primary>  (12) 
energy

$$$$
12:0
     RDKit          3D

 46 48  0  0  0  0  0  0  0  0999 V2000
  149.6220  151.0740  135.7860 C   0  0  0  0  0  0  0  0  0  0  0  0
  149.6580  150.3970  134.4250 C   0  0  0  0  0  0  0  0  0  0  0  0
  150.2380  151.2780  133.4700 O   0  0  0  0  0  0  0  0  0  0  0  0
  149.5480  151.7280  132.3390 C   0  0  0  0  0  0  0  0  0  0  0  0
  149.9920  151.4710  131.1850 O   0  0  0  0  0  0  0  0  0  0  0  0
  148.2990  152.5050  132.4980 C   0  0  0  0  0  0  0  0  0  0  0  0
  147.0490  151.8650  132.4800 C   0  0  0  0  0  0  0  0  0  0  0  0
  145.8740  152.6040  132.6350 C   0  0  0  0  0  0  0  0  0  0  0  0
  145.9320  153.9880  132.8080 C   0  0  0  0  0  0  0  0  0  0  0  0
  147.1700  154.6520  132.8270 C   0  0  0  0  0  0  0  0  0  0  0  0
  147.2330  156.1240  133.0130 C   0  0  0  0  0  0  0  0  0  0  0  0
  148.4760  156.8050  132.9290 C   0  0  0  0  0  0  0  0  0  0  0  0
  148.5460  158.1980  133.0910 C   0  0  0  0  0  0  0  0  0  0  0  0
  147.3640  158.8860  133.3450 C   0  0  0  0  0  0  0  0  0  0  0  0
  147.1450  160.2330  133.5200 C   0  0  0  0  0  0  0  0  0  0  0  0
  145.7730  160.3590  133.7350 C   0  0  0  0  0  0  0  0  0  0  0  0
  145.1170  161.6430  134.0560 C   0  0  0  0  0  0  0  0  0  0  0  0
  143.7480  161.8690  133.7290 N   0  0  0  0  0  0  0  0  0  0  0  0
  145.7580  162.5340  134.6730 O   0  0  0  0  0  0  0  0  0  0  0  0
  145.1680  159.1380  133.6840 N   0  0  0  0  0  0  0  0  0  0  0  0
  143.7650  158.8440  133.7720 C   0  0  0  0  0  0  0  0  0  0  0  0
  143.2040  158.1890  132.8510 O   0  0  0  0  0  0  0  0  0  0  0  0
  143.0410  159.2650  134.8960 O   0  0  0  0  0  0  0  0  0  0  0  0
  141.6770  159.5820  134.9030 C   0  0  0  0  0  0  0  0  0  0  0  0
  140.8660  159.2740  136.1160 C   0  0  0  0  0  0  0  0  0  0  0  0
  141.1330  160.1600  133.9240 O   0  0  0  0  0  0  0  0  0  0  0  0
  146.1560  158.2470  133.4480 C   0  0  0  0  0  0  0  0  0  0  0  0
  146.0530  156.8620  133.2700 C   0  0  0  0  0  0  0  0  0  0  0  0
  148.3500  153.9010  132.6720 C   0  0  0  0  0  0  0  0  0  0  0  0
  149.6626  150.3103  136.5766 H   0  0  0  0  0  0  0  0  0  0  0  0
  150.4855  151.7485  135.8830 H   0  0  0  0  0  0  0  0  0  0  0  0
  148.6918  151.6530  135.8830 H   0  0  0  0  0  0  0  0  0  0  0  0
  150.2597  149.4783  134.4887 H   0  0  0  0  0  0  0  0  0  0  0  0
  148.6333  150.1446  134.1148 H   0  0  0  0  0  0  0  0  0  0  0  0
  146.9950  150.7749  132.3430 H   0  0  0  0  0  0  0  0  0  0  0  0
  144.8996  152.0937  132.6207 H   0  0  0  0  0  0  0  0  0  0  0  0
  145.0020  154.5626  132.9303 H   0  0  0  0  0  0  0  0  0  0  0  0
  149.3959  156.2340  132.7345 H   0  0  0  0  0  0  0  0  0  0  0  0
  149.5066  158.7292  133.0192 H   0  0  0  0  0  0  0  0  0  0  0  0
  147.8931  161.0391  133.4955 H   0  0  0  0  0  0  0  0  0  0  0  0
  143.0590  161.0840  133.7280 H   0  0  0  0  0  0  0  0  0  0  0  0
  141.4552  159.4978  137.0175 H   0  0  0  0  0  0  0  0  0  0  0  0
  139.9534  159.8882  136.1126 H   0  0  0  0  0  0  0  0  0  0  0  0
  140.5912  158.2089  136.1126 H   0  0  0  0  0  0  0  0  0  0  0  0
  145.0766  156.3587  133.3286 H   0  0  0  0  0  0  0  0  0  0  0  0
  149.3244  154.4112  132.6870 H   0  0  0  0  0  0  0  0  0  0  0  0
  1  2  1  0
  2  3  1  0
  3  4  1  0
  4  5  2  0
  4  6  1  0
  6  7  2  0
  7  8  1  0
  8  9  2  0
  9 10  1  0
 10 11  1  0
 11 12  2  0
 12 13  1  0
 13 14  2  0
 14 15  1  0
 15 16  2  0
 16 17  1  0
 17 18  1  0
 17 19  2  0
 16 20  1  0
 20 21  1  0
 21 22  2  0
 21 23  1  0
 23 24  1  0
 24 25  1  0
 24 26  2  0
 20 27  1  0
 27 28  2  0
 10 29  2  0
 29  6  1  0
 28 11  1  0
 27 14  1  0
  1 30  1  0
  1 31  1  0
  1 32  1  0
  2 33  1  0
  2 34  1  0
  7 35  1  0
  8 36  1  0
  9 37  1  0
 12 38  1  0
 13 39  1  0
 15 40  1  0
 18 41  1  0
 25 42  1  0
 25 43  1  0
 25 44  1  0
 28 45  1  0
 29 46  1  0
M  CHG  1  18  -1
M  END
>  <UniqueID>  (13) 
12

>  <SMILES>  (13) 
CCOC(=O)c1cccc(-c2ccc3cc(C([NH-])=O)n(C(=O)OC(C)=O)c3c2)c1

>  <Energy>  (13) 
87.53324227654792

>  <Genealogy>  (13) 
CCOC(=O)c1cccc(-c2ccc3cc(C([NH-])=O)n(C(=O)OC(C)=O)c3c2)c1 (protonated)
CCOC(=O)c1cccc(-c2ccc3cc(C([NH-])=O)n(C(=O)OC(C)=O)c3c2)c1 (3D coordinates assigned)
CCOC(=O)c1cccc(-c2ccc3cc(C([NH-])=O)n(C(=O)OC(C)=O)c3c2)c1 (optimized conformer: 87.53324227654792 kcal/mol)

>  <smiles>  (13) 
CCOC(=O)c1cccc(-c2ccc3cc(C(N)=O)n(C(=O)OC(C)=O)c3c2)c1

>  <score_type>  (13) 
oracle

>  <origin>  (13) 
adg

>  <m_score__min__energy>  (13) 
-8.6899999999999995

>  <m_primary>  (13) 
energy

$$$$
13:0
     RDKit          3D

 46 48  0  0  0  0  0  0  0  0999 V2000
  140.1380  157.7050  132.6670 C   0  0  0  0  0  0  0  0  0  0  0  0
  139.8220  157.3960  134.0970 C   0  0  0  0  0  0  0  0  0  0  0  0
  138.7310  157.7990  134.5830 O   0  0  0  0  0  0  0  0  0  0  0  0
  140.7520  156.6770  134.9250 N   0  0  0  0  0  0  0  0  0  0  0  0
  141.2820  157.0590  136.1200 C   0  0  0  0  0  0  0  0  0  0  0  0
  141.1450  158.3920  136.7410 C   0  0  0  0  0  0  0  0  0  0  0  0
  139.8600  158.9710  136.9700 N   0  0  0  0  0  0  0  0  0  0  0  0
  142.1790  159.0520  137.0280 O   0  0  0  0  0  0  0  0  0  0  0  0
  142.0420  156.0310  136.6720 C   0  0  0  0  0  0  0  0  0  0  0  0
  141.9750  155.0010  135.7610 C   0  0  0  0  0  0  0  0  0  0  0  0
  142.5470  153.7330  135.8000 C   0  0  0  0  0  0  0  0  0  0  0  0
  142.2900  152.8630  134.7270 C   0  0  0  0  0  0  0  0  0  0  0  0
  141.4590  153.2680  133.6520 C   0  0  0  0  0  0  0  0  0  0  0  0
  141.2150  152.3370  132.4930 C   0  0  0  0  0  0  0  0  0  0  0  0
  140.6280  151.0080  132.9670 C   0  0  0  0  0  0  0  0  0  0  0  0
  141.3260  149.9390  132.3610 O   0  0  0  0  0  0  0  0  0  0  0  0
  140.5770  149.4030  131.2880 C   0  0  1  0  0  0  0  0  0  0  0  0
  140.4950  147.8790  131.4830 C   0  0  0  0  0  0  0  0  0  0  0  0
  139.7330  147.2210  130.3240 C   0  0  0  0  0  0  0  0  0  0  0  0
  138.7310  148.1880  129.6790 C   0  0  0  0  0  0  0  0  0  0  0  0
  138.2540  149.2290  130.7020 C   0  0  0  0  0  0  0  0  0  0  0  0
  139.2950  150.0310  131.2510 O   0  0  0  0  0  0  0  0  0  0  0  0
  140.9030  154.5660  133.6440 C   0  0  0  0  0  0  0  0  0  0  0  0
  141.1910  155.4170  134.7160 C   0  0  0  0  0  0  0  0  0  0  0  0
  140.9238  158.4735  132.6229 H   0  0  0  0  0  0  0  0  0  0  0  0
  140.4891  156.7922  132.1636 H   0  0  0  0  0  0  0  0  0  0  0  0
  139.2333  158.0765  132.1636 H   0  0  0  0  0  0  0  0  0  0  0  0
  138.9930  158.5280  136.5920 H   0  0  0  0  0  0  0  0  0  0  0  0
  139.7800  159.8960  137.4490 H   0  0  0  0  0  0  0  0  0  0  0  0
  142.5808  156.0400  137.6310 H   0  0  0  0  0  0  0  0  0  0  0  0
  143.1801  153.4217  136.6439 H   0  0  0  0  0  0  0  0  0  0  0  0
  142.7377  151.8583  134.7210 H   0  0  0  0  0  0  0  0  0  0  0  0
  140.5108  152.8114  131.7936 H   0  0  0  0  0  0  0  0  0  0  0  0
  142.1768  152.1367  131.9981 H   0  0  0  0  0  0  0  0  0  0  0  0
  140.7236  150.9347  134.0604 H   0  0  0  0  0  0  0  0  0  0  0  0
  139.5657  150.9567  132.6862 H   0  0  0  0  0  0  0  0  0  0  0  0
  141.0535  149.5972  130.3158 H   0  0  0  0  0  0  0  0  0  0  0  0
  141.5135  147.4656  131.5257 H   0  0  0  0  0  0  0  0  0  0  0  0
  139.9580  147.6720  132.4204 H   0  0  0  0  0  0  0  0  0  0  0  0
  140.4561  146.8964  129.5613 H   0  0  0  0  0  0  0  0  0  0  0  0
  139.1716  146.3648  130.7262 H   0  0  0  0  0  0  0  0  0  0  0  0
  139.2161  148.7036  128.8371 H   0  0  0  0  0  0  0  0  0  0  0  0
  137.8622  147.6150  129.3228 H   0  0  0  0  0  0  0  0  0  0  0  0
  137.5321  149.8941  130.2056 H   0  0  0  0  0  0  0  0  0  0  0  0
  137.8131  148.6685  131.5396 H   0  0  0  0  0  0  0  0  0  0  0  0
  140.2600  154.8992  132.8161 H   0  0  0  0  0  0  0  0  0  0  0  0
  1  2  1  0
  2  3  2  0
  2  4  1  0
  4  5  1  0
  5  6  1  0
  6  7  1  0
  6  8  2  0
  5  9  2  0
  9 10  1  0
 10 11  2  0
 11 12  1  0
 12 13  2  0
 13 14  1  0
 14 15  1  0
 15 16  1  0
 16 17  1  0
 17 18  1  0
 18 19  1  0
 19 20  1  0
 20 21  1  0
 21 22  1  0
 13 23  1  0
 23 24  2  0
 24  4  1  0
 24 10  1  0
 22 17  1  0
  1 25  1  0
  1 26  1  0
  1 27  1  0
  7 28  1  0
  7 29  1  0
  9 30  1  0
 11 31  1  0
 12 32  1  0
 14 33  1  0
 14 34  1  0
 15 35  1  0
 15 36  1  0
 17 37  1  6
 18 38  1  0
 18 39  1  0
 19 40  1  0
 19 41  1  0
 20 42  1  0
 20 43  1  0
 21 44  1  0
 21 45  1  0
 23 46  1  0
M  END
>  <UniqueID>  (14) 
13

>  <SMILES>  (14) 
CC(=O)n1c(C(N)=O)cc2ccc(CCO[C@H]3CCCCO3)cc21

>  <Energy>  (14) 
94.38311020751058

>  <Genealogy>  (14) 
CC(=O)n1c(C(N)=O)cc2ccc(CCO[C@H]3CCCCO3)cc21 (chirality)
CC(=O)n1c(C(N)=O)cc2ccc(CCO[C@H]3CCCCO3)cc21 (3D coordinates assigned)
CC(=O)n1c(C(N)=O)cc2ccc(CCO[C@H]3CCCCO3)cc21 (nonaromatic ring conformer: 94.38311020751058 kcal/mol)

>  <smiles>  (14) 
CC(=O)n1c(C(N)=O)cc2ccc(CCOC3CCCCO3)cc21

>  <score_type>  (14) 
oracle

>  <origin>  (14) 
adg

>  <m_score__min__energy>  (14) 
-7.9800000000000004

>  <m_primary>  (14) 
energy

$$$$
14:0
     RDKit          3D

 29 30  0  0  0  0  0  0  0  0999 V2000
  149.1210  159.9590  131.0520 C   0  0  0  0  0  0  0  0  0  0  0  0
  149.4070  158.8980  132.0680 C   0  0  0  0  0  0  0  0  0  0  0  0
  150.3280  158.0640  131.8490 O   0  0  0  0  0  0  0  0  0  0  0  0
  148.6480  158.8370  133.3290 C   0  0  0  0  0  0  0  0  0  0  0  0
  149.2300  159.0660  134.4240 O   0  0  0  0  0  0  0  0  0  0  0  0
  147.2490  158.5160  133.3260 N   0  0  0  0  0  0  0  0  0  0  0  0
  146.6770  157.2850  133.2080 C   0  0  0  0  0  0  0  0  0  0  0  0
  147.3910  156.0210  132.9310 C   0  0  0  0  0  0  0  0  0  0  0  0
  148.7990  155.9130  133.1300 N   0  0  0  0  0  0  0  0  0  0  0  0
  146.7550  155.0290  132.4850 O   0  0  0  0  0  0  0  0  0  0  0  0
  145.2920  157.3780  133.3390 C   0  0  0  0  0  0  0  0  0  0  0  0
  145.0330  158.7140  133.5440 C   0  0  0  0  0  0  0  0  0  0  0  0
  143.8270  159.3700  133.7670 C   0  0  0  0  0  0  0  0  0  0  0  0
  143.8620  160.7570  133.9920 C   0  0  0  0  0  0  0  0  0  0  0  0
  145.0920  161.4640  133.9790 C   0  0  0  0  0  0  0  0  0  0  0  0
  145.1240  162.9400  134.2820 C   0  0  0  0  0  0  0  0  0  0  0  0
  144.0270  163.5760  133.7260 F   0  0  0  0  0  0  0  0  0  0  0  0
  145.1020  163.1570  135.6500 F   0  0  0  0  0  0  0  0  0  0  0  0
  146.2780  163.4890  133.7570 F   0  0  0  0  0  0  0  0  0  0  0  0
  146.3000  160.7560  133.7740 C   0  0  0  0  0  0  0  0  0  0  0  0
  146.2310  159.3790  133.5350 C   0  0  0  0  0  0  0  0  0  0  0  0
  148.8677  160.8987  131.5646 H   0  0  0  0  0  0  0  0  0  0  0  0
  150.0097  160.1128  130.4223 H   0  0  0  0  0  0  0  0  0  0  0  0
  148.2754  159.6453  130.4223 H   0  0  0  0  0  0  0  0  0  0  0  0
  149.3810  156.7590  133.3210 H   0  0  0  0  0  0  0  0  0  0  0  0
  144.5612  156.5574  133.2891 H   0  0  0  0  0  0  0  0  0  0  0  0
  142.8744  158.8199  133.7673 H   0  0  0  0  0  0  0  0  0  0  0  0
  142.9246  161.3008  134.1804 H   0  0  0  0  0  0  0  0  0  0  0  0
  147.2693  161.2753  133.8018 H   0  0  0  0  0  0  0  0  0  0  0  0
  1  2  1  0
  2  3  2  0
  2  4  1  0
  4  5  2  0
  4  6  1  0
  6  7  1  0
  7  8  1  0
  8  9  1  0
  8 10  2  0
  7 11  2  0
 11 12  1  0
 12 13  2  0
 13 14  1  0
 14 15  2  0
 15 16  1  0
 16 17  1  0
 16 18  1  0
 16 19  1  0
 15 20  1  0
 20 21  2  0
 21  6  1  0
 21 12  1  0
  1 22  1  0
  1 23  1  0
  1 24  1  0
  9 25  1  0
 11 26  1  0
 13 27  1  0
 14 28  1  0
 20 29  1  0
M  CHG  1   9  -1
M  END
>  <UniqueID>  (15) 
14

>  <SMILES>  (15) 
CC(=O)C(=O)n1c(C([NH-])=O)cc2ccc(C(F)(F)F)cc21

>  <Energy>  (15) 
68.18665450623429

>  <Genealogy>  (15) 
CC(=O)C(=O)n1c(C([NH-])=O)cc2ccc(C(F)(F)F)cc21 (protonated)
CC(=O)C(=O)n1c(C([NH-])=O)cc2ccc(C(F)(F)F)cc21 (3D coordinates assigned)
CC(=O)C(=O)n1c(C([NH-])=O)cc2ccc(C(F)(F)F)cc21 (optimized conformer: 68.18665450623429 kcal/mol)

>  <smiles>  (15) 
CC(=O)C(=O)n1c(C(N)=O)cc2ccc(C(F)(F)F)cc21

>  <score_type>  (15) 
oracle

>  <origin>  (15) 
adg

>  <m_score__min__energy>  (15) 
-5.6900000000000004

>  <m_primary>  (15) 
energy

$$$$
15:0
     RDKit          3D

 34 36  0  0  0  0  0  0  0  0999 V2000
  149.2160  156.6170  132.5970 N   0  0  0  0  0  0  0  0  0  0  0  0
  148.1320  155.8490  133.1160 C   0  0  0  0  0  0  0  0  0  0  0  0
  148.3350  154.6530  133.4600 O   0  0  0  0  0  0  0  0  0  0  0  0
  146.7960  156.4650  133.2590 C   0  0  0  0  0  0  0  0  0  0  0  0
  145.6000  155.7530  133.1530 C   0  0  0  0  0  0  0  0  0  0  0  0
  144.6060  156.6910  133.2880 C   0  0  0  0  0  0  0  0  0  0  0  0
  143.2220  156.5350  133.2960 C   0  0  0  0  0  0  0  0  0  0  0  0
  142.4320  157.6800  133.4910 C   0  0  0  0  0  0  0  0  0  0  0  0
  143.0320  158.9540  133.6650 C   0  0  0  0  0  0  0  0  0  0  0  0
  142.1730  160.1610  133.9490 C   0  0  0  0  0  0  0  0  0  0  0  0
  141.7290  160.1460  135.2610 F   0  0  0  0  0  0  0  0  0  0  0  0
  142.9180  161.3060  133.7420 F   0  0  0  0  0  0  0  0  0  0  0  0
  141.0640  160.1840  133.1180 F   0  0  0  0  0  0  0  0  0  0  0  0
  144.4420  159.0660  133.6700 C   0  0  0  0  0  0  0  0  0  0  0  0
  145.2010  157.9110  133.4610 C   0  0  0  0  0  0  0  0  0  0  0  0
  146.5460  157.7880  133.4480 N   0  0  0  0  0  0  0  0  0  0  0  0
  147.4970  158.8550  133.5890 C   0  0  0  0  0  0  0  0  0  0  0  0
  148.4570  158.7380  134.3970 O   0  0  0  0  0  0  0  0  0  0  0  0
  147.3630  160.1060  132.7710 C   0  0  0  0  0  0  0  0  0  0  0  0
  148.4150  160.1610  131.7590 N   0  0  0  0  0  0  0  0  0  0  0  0
  148.4250  160.9050  130.6400 C   0  0  0  0  0  0  0  0  0  0  0  0
  149.6030  160.6480  129.9750 C   0  0  0  0  0  0  0  0  0  0  0  0
  150.3320  159.7520  130.6760 N   0  0  0  0  0  0  0  0  0  0  0  0
  149.5740  159.4750  131.7580 C   0  0  0  0  0  0  0  0  0  0  0  0
  149.6060  157.4250  133.1320 H   0  0  0  0  0  0  0  0  0  0  0  0
  145.4794  154.6711  132.9950 H   0  0  0  0  0  0  0  0  0  0  0  0
  142.7619  155.5460  133.1541 H   0  0  0  0  0  0  0  0  0  0  0  0
  141.3360  157.5880  133.5090 H   0  0  0  0  0  0  0  0  0  0  0  0
  144.9294  160.0383  133.8344 H   0  0  0  0  0  0  0  0  0  0  0  0
  146.3810  160.1128  132.2753 H   0  0  0  0  0  0  0  0  0  0  0  0
  147.4551  160.9797  133.4329 H   0  0  0  0  0  0  0  0  0  0  0  0
  147.6336  161.5958  130.3136 H   0  0  0  0  0  0  0  0  0  0  0  0
  149.9043  161.1024  129.0197 H   0  0  0  0  0  0  0  0  0  0  0  0
  149.8692  158.7695  132.5487 H   0  0  0  0  0  0  0  0  0  0  0  0
  1  2  1  0
  2  3  2  0
  2  4  1  0
  4  5  2  0
  5  6  1  0
  6  7  2  0
  7  8  1  0
  8  9  2  0
  9 10  1  0
 10 11  1  0
 10 12  1  0
 10 13  1  0
  9 14  1  0
 14 15  2  0
 15 16  1  0
 16 17  1  0
 17 18  2  0
 17 19  1  0
 19 20  1  0
 20 21  1  0
 21 22  2  0
 22 23  1  0
 23 24  2  0
 16  4  1  0
 24 20  1  0
 15  6  1  0
  1 25  1  0
  5 26  1  0
  7 27  1  0
  8 28  1  0
 14 29  1  0
 19 30  1  0
 19 31  1  0
 21 32  1  0
 22 33  1  0
 24 34  1  0
M  CHG  1   1  -1
M  END
>  <UniqueID>  (16) 
15

>  <SMILES>  (16) 
[NH-]C(=O)c1cc2ccc(C(F)(F)F)cc2n1C(=O)Cn1ccnc1

>  <Energy>  (16) 
103.74676061170386

>  <Genealogy>  (16) 
[NH-]C(=O)c1cc2ccc(C(F)(F)F)cc2n1C(=O)Cn1ccnc1 (protonated)
[NH-]C(=O)c1cc2ccc(C(F)(F)F)cc2n1C(=O)Cn1ccnc1 (3D coordinates assigned)
[NH-]C(=O)c1cc2ccc(C(F)(F)F)cc2n1C(=O)Cn1ccnc1 (optimized conformer: 103.74676061170386 kcal/mol)

>  <smiles>  (16) 
NC(=O)c1cc2ccc(C(F)(F)F)cc2n1C(=O)Cn1ccnc1

>  <score_type>  (16) 
oracle

>  <origin>  (16) 
adg

>  <m_score__min__energy>  (16) 
-6.54

>  <m_primary>  (16) 
energy

$$$$
16:0
     RDKit          3D

 41 43  0  0  0  0  0  0  0  0999 V2000
  148.9310  159.7580  130.3680 C   0  0  0  0  0  0  0  0  0  0  0  0
  149.2140  159.0920  131.6480 N   0  0  0  0  0  0  0  0  0  0  0  0
  148.8610  159.9230  132.8100 C   0  0  0  0  0  0  0  0  0  0  0  0
  147.8430  158.9120  133.3190 C   0  0  0  0  0  0  0  0  0  0  0  0
  146.4300  159.4440  133.4990 C   0  0  0  0  0  0  0  0  0  0  0  0
  146.1460  160.8190  133.7230 C   0  0  0  0  0  0  0  0  0  0  0  0
  144.8240  161.2630  133.8990 C   0  0  0  0  0  0  0  0  0  0  0  0
  143.8070  160.3170  133.8640 C   0  0  0  0  0  0  0  0  0  0  0  0
  142.4450  160.4760  133.9830 C   0  0  0  0  0  0  0  0  0  0  0  0
  141.9130  159.1940  133.8630 C   0  0  0  0  0  0  0  0  0  0  0  0
  140.4730  158.8930  134.0150 C   0  0  0  0  0  0  0  0  0  0  0  0
  140.0150  158.1800  135.1610 N   0  0  0  0  0  0  0  0  0  0  0  0
  139.6470  159.2280  133.1260 O   0  0  0  0  0  0  0  0  0  0  0  0
  142.9060  158.2800  133.6740 N   0  0  0  0  0  0  0  0  0  0  0  0
  142.7670  156.8710  133.4330 C   0  0  0  0  0  0  0  0  0  0  0  0
  143.4670  156.3130  132.5450 O   0  0  0  0  0  0  0  0  0  0  0  0
  141.8390  156.1270  134.1740 O   0  0  0  0  0  0  0  0  0  0  0  0
  141.3990  154.8260  133.7960 C   0  0  0  0  0  0  0  0  0  0  0  0
  140.0380  154.8950  133.1740 C   0  0  0  0  0  0  0  0  0  0  0  0
  139.3550  156.1440  133.0530 N   0  0  0  0  0  0  0  0  0  0  0  0
  139.4790  153.8380  132.7790 O   0  0  0  0  0  0  0  0  0  0  0  0
  144.0600  158.9840  133.6780 C   0  0  0  0  0  0  0  0  0  0  0  0
  145.3640  158.5150  133.4810 C   0  0  0  0  0  0  0  0  0  0  0  0
  148.1620  158.1420  132.0420 C   0  0  0  0  0  0  0  0  0  0  0  0
  148.5074  160.7550  130.5592 H   0  0  0  0  0  0  0  0  0  0  0  0
  149.8636  159.8599  129.7936 H   0  0  0  0  0  0  0  0  0  0  0  0
  148.2104  159.1574  129.7936 H   0  0  0  0  0  0  0  0  0  0  0  0
  149.6999  160.0863  133.5025 H   0  0  0  0  0  0  0  0  0  0  0  0
  148.5401  160.9617  132.6424 H   0  0  0  0  0  0  0  0  0  0  0  0
  147.8913  158.4339  134.3085 H   0  0  0  0  0  0  0  0  0  0  0  0
  146.9717  161.5449  133.7591 H   0  0  0  0  0  0  0  0  0  0  0  0
  144.6012  162.3281  134.0597 H   0  0  0  0  0  0  0  0  0  0  0  0
  141.8940  161.4151  134.1395 H   0  0  0  0  0  0  0  0  0  0  0  0
  140.3350  157.2030  135.3480 H   0  0  0  0  0  0  0  0  0  0  0  0
  142.1078  154.4003  133.0706 H   0  0  0  0  0  0  0  0  0  0  0  0
  141.3494  154.1915  134.6932 H   0  0  0  0  0  0  0  0  0  0  0  0
  138.4020  156.1830  132.6320 H   0  0  0  0  0  0  0  0  0  0  0  0
  139.7980  157.0300  133.3850 H   0  0  0  0  0  0  0  0  0  0  0  0
  145.5558  157.4446  133.3154 H   0  0  0  0  0  0  0  0  0  0  0  0
  148.5370  157.1244  132.2260 H   0  0  0  0  0  0  0  0  0  0  0  0
  147.3485  157.9253  131.3341 H   0  0  0  0  0  0  0  0  0  0  0  0
  1  2  1  0
  2  3  1  0
  3  4  1  0
  4  5  1  0
  5  6  2  0
  6  7  1  0
  7  8  2  0
  8  9  1  0
  9 10  2  0
 10 11  1  0
 11 12  1  0
 11 13  2  0
 10 14  1  0
 14 15  1  0
 15 16  2  0
 15 17  1  0
 17 18  1  0
 18 19  1  0
 19 20  1  0
 19 21  2  0
 14 22  1  0
 22 23  2  0
  4 24  1  0
 24  2  1  0
 23  5  1  0
 22  8  1  0
  1 25  1  0
  1 26  1  0
  1 27  1  0
  3 28  1  0
  3 29  1  0
  4 30  1  0
  6 31  1  0
  7 32  1  0
  9 33  1  0
 12 34  1  0
 18 35  1  0
 18 36  1  0
 20 37  1  0
 20 38  1  0
 23 39  1  0
 24 40  1  0
 24 41  1  0
M  CHG  1  12  -1
M  END
>  <UniqueID>  (17) 
16

>  <SMILES>  (17) 
CN1CC(c2ccc3cc(C([NH-])=O)n(C(=O)OCC(N)=O)c3c2)C1

>  <Energy>  (17) 
150.6276660322538

>  <Genealogy>  (17) 
CN1CC(c2ccc3cc(C([NH-])=O)n(C(=O)OCC(N)=O)c3c2)C1 (protonated)
CN1CC(c2ccc3cc(C([NH-])=O)n(C(=O)OCC(N)=O)c3c2)C1 (3D coordinates assigned)
CN1CC(c2ccc3cc(C([NH-])=O)n(C(=O)OCC(N)=O)c3c2)C1 (nonaromatic ring conformer: 150.6276660322538 kcal/mol)

>  <smiles>  (17) 
CN1CC(c2ccc3cc(C(N)=O)n(C(=O)OCC(N)=O)c3c2)C1

>  <score_type>  (17) 
oracle

>  <origin>  (17) 
adg

>  <m_score__min__energy>  (17) 
-7.04

>  <m_primary>  (17) 
energy

$$$$
17:0
     RDKit          3D

 30 31  0  0  0  0  0  0  0  0999 V2000
  149.1840  160.3190  130.9310 C   0  0  0  0  0  0  0  0  0  0  0  0
  148.7360  158.9640  131.4670 C   0  0  0  0  0  0  0  0  0  0  0  0
  148.0440  159.1280  132.7870 C   0  0  0  0  0  0  0  0  0  0  0  0
  148.5170  159.9200  133.6460 O   0  0  0  0  0  0  0  0  0  0  0  0
  146.9160  158.3080  133.1220 N   0  0  0  0  0  0  0  0  0  0  0  0
  145.6420  158.7050  133.3900 C   0  0  0  0  0  0  0  0  0  0  0  0
  145.1820  160.1040  133.5020 C   0  0  0  0  0  0  0  0  0  0  0  0
  146.1270  161.1470  133.7310 N   0  0  0  0  0  0  0  0  0  0  0  0
  143.9630  160.3930  133.3760 O   0  0  0  0  0  0  0  0  0  0  0  0
  144.8260  157.5960  133.6130 C   0  0  0  0  0  0  0  0  0  0  0  0
  145.6510  156.5020  133.4750 C   0  0  0  0  0  0  0  0  0  0  0  0
  145.3720  155.1440  133.5950 C   0  0  0  0  0  0  0  0  0  0  0  0
  146.4230  154.2350  133.3910 C   0  0  0  0  0  0  0  0  0  0  0  0
  147.7240  154.6920  133.0500 C   0  0  0  0  0  0  0  0  0  0  0  0
  148.8530  153.7090  132.8740 C   0  0  0  0  0  0  0  0  0  0  0  0
  149.0400  153.0160  134.0550 F   0  0  0  0  0  0  0  0  0  0  0  0
  150.0260  154.3640  132.5440 F   0  0  0  0  0  0  0  0  0  0  0  0
  148.5620  152.8070  131.8630 F   0  0  0  0  0  0  0  0  0  0  0  0
  147.9720  156.0820  132.9610 C   0  0  0  0  0  0  0  0  0  0  0  0
  146.9070  156.9610  133.1800 C   0  0  0  0  0  0  0  0  0  0  0  0
  149.4062  160.9911  131.7730 H   0  0  0  0  0  0  0  0  0  0  0  0
  150.0873  160.1899  130.3166 H   0  0  0  0  0  0  0  0  0  0  0  0
  148.3818  160.7538  130.3166 H   0  0  0  0  0  0  0  0  0  0  0  0
  148.0427  158.5013  130.7492 H   0  0  0  0  0  0  0  0  0  0  0  0
  149.6201  158.3240  131.6042 H   0  0  0  0  0  0  0  0  0  0  0  0
  146.9220  161.3060  133.0720 H   0  0  0  0  0  0  0  0  0  0  0  0
  143.7516  157.5954  133.8490 H   0  0  0  0  0  0  0  0  0  0  0  0
  144.3591  154.7932  133.8421 H   0  0  0  0  0  0  0  0  0  0  0  0
  146.2364  153.1561  133.4966 H   0  0  0  0  0  0  0  0  0  0  0  0
  148.9772  156.4616  132.7255 H   0  0  0  0  0  0  0  0  0  0  0  0
  1  2  1  0
  2  3  1  0
  3  4  2  0
  3  5  1  0
  5  6  1  0
  6  7  1  0
  7  8  1  0
  7  9  2  0
  6 10  2  0
 10 11  1  0
 11 12  2  0
 12 13  1  0
 13 14  2  0
 14 15  1  0
 15 16  1  0
 15 17  1  0
 15 18  1  0
 14 19  1  0
 19 20  2  0
 20  5  1  0
 20 11  1  0
  1 21  1  0
  1 22  1  0
  1 23  1  0
  2 24  1  0
  2 25  1  0
  8 26  1  0
 10 27  1  0
 12 28  1  0
 13 29  1  0
 19 30  1  0
M  CHG  1   8  -1
M  END
>  <UniqueID>  (18) 
17

>  <SMILES>  (18) 
CCC(=O)n1c(C([NH-])=O)cc2ccc(C(F)(F)F)cc21

>  <Energy>  (18) 
66.73312451427785

>  <Genealogy>  (18) 
CCC(=O)n1c(C([NH-])=O)cc2ccc(C(F)(F)F)cc21 (protonated)
CCC(=O)n1c(C([NH-])=O)cc2ccc(C(F)(F)F)cc21 (3D coordinates assigned)
CCC(=O)n1c(C([NH-])=O)cc2ccc(C(F)(F)F)cc21 (optimized conformer: 66.73312451427785 kcal/mol)

>  <smiles>  (18) 
CCC(=O)n1c(C(N)=O)cc2ccc(C(F)(F)F)cc21

>  <score_type>  (18) 
oracle

>  <origin>  (18) 
adg

>  <m_score__min__energy>  (18) 
-5.9699999999999998

>  <m_primary>  (18) 
energy

$$$$
18:0
     RDKit          3D

 31 33  0  0  0  0  0  0  0  0999 V2000
  149.8890  150.9900  132.0770 C   0  0  0  0  0  0  0  0  0  0  0  0
  149.0880  152.1840  132.4770 C   0  0  0  0  0  0  0  0  0  0  0  0
  147.8390  152.1210  132.9850 N   0  0  0  0  0  0  0  0  0  0  0  0
  147.2930  153.3480  133.1970 C   0  0  0  0  0  0  0  0  0  0  0  0
  148.1150  154.4230  132.8420 C   0  0  0  0  0  0  0  0  0  0  0  0
  147.7900  155.8680  132.9490 C   0  0  0  0  0  0  0  0  0  0  0  0
  148.8070  156.8410  132.7580 C   0  0  0  0  0  0  0  0  0  0  0  0
  148.5240  158.2120  132.8660 C   0  0  0  0  0  0  0  0  0  0  0  0
  147.2180  158.5880  133.1600 C   0  0  0  0  0  0  0  0  0  0  0  0
  146.6790  159.8400  133.3480 C   0  0  0  0  0  0  0  0  0  0  0  0
  145.3340  159.6230  133.6330 C   0  0  0  0  0  0  0  0  0  0  0  0
  144.3560  160.7170  133.8190 C   0  0  0  0  0  0  0  0  0  0  0  0
  143.0190  160.5930  133.3470 N   0  0  0  0  0  0  0  0  0  0  0  0
  144.7240  161.7950  134.3580 O   0  0  0  0  0  0  0  0  0  0  0  0
  145.0520  158.2900  133.6300 N   0  0  0  0  0  0  0  0  0  0  0  0
  143.8080  157.6540  133.9670 C   0  0  0  0  0  0  0  0  0  0  0  0
  142.7830  157.8490  133.2620 O   0  0  0  0  0  0  0  0  0  0  0  0
  143.7320  156.7980  135.0590 O   0  0  0  0  0  0  0  0  0  0  0  0
  146.2170  157.6690  133.3340 C   0  0  0  0  0  0  0  0  0  0  0  0
  146.4740  156.2950  133.2500 C   0  0  0  0  0  0  0  0  0  0  0  0
  149.5580  153.7790  132.2390 S   0  0  0  0  0  0  0  0  0  0  0  0
  150.2407  150.4658  132.9779 H   0  0  0  0  0  0  0  0  0  0  0  0
  149.2625  150.3117  131.4791 H   0  0  0  0  0  0  0  0  0  0  0  0
  150.7542  151.3124  131.4791 H   0  0  0  0  0  0  0  0  0  0  0  0
  147.3360  151.2270  133.1830 H   0  0  0  0  0  0  0  0  0  0  0  0
  146.2846  153.4847  133.6147 H   0  0  0  0  0  0  0  0  0  0  0  0
  149.8310  156.5158  132.5221 H   0  0  0  0  0  0  0  0  0  0  0  0
  149.3119  158.9661  132.7223 H   0  0  0  0  0  0  0  0  0  0  0  0
  147.2002  160.8067  133.2862 H   0  0  0  0  0  0  0  0  0  0  0  0
  142.7690  159.8910  132.6160 H   0  0  0  0  0  0  0  0  0  0  0  0
  145.6700  155.5625  133.4145 H   0  0  0  0  0  0  0  0  0  0  0  0
  1  2  1  0
  2  3  2  0
  3  4  1  0
  4  5  2  0
  5  6  1  0
  6  7  2  0
  7  8  1  0
  8  9  2  0
  9 10  1  0
 10 11  2  0
 11 12  1  0
 12 13  1  0
 12 14  2  0
 11 15  1  0
 15 16  1  0
 16 17  2  0
 16 18  1  0
 15 19  1  0
 19 20  2  0
  5 21  1  0
 21  2  1  0
 20  6  1  0
 19  9  1  0
  1 22  1  0
  1 23  1  0
  1 24  1  0
  3 25  1  0
  4 26  1  0
  7 27  1  0
  8 28  1  0
 10 29  1  0
 13 30  1  0
 20 31  1  0
M  CHG  3   3   1  13  -1  18  -1
M  END
>  <UniqueID>  (19) 
18

>  <SMILES>  (19) 
Cc1[nH+]cc(-c2ccc3cc(C([NH-])=O)n(C(=O)[O-])c3c2)s1

>  <Energy>  (19) 
103.67477744360488

>  <Genealogy>  (19) 
Cc1[nH+]cc(-c2ccc3cc(C([NH-])=O)n(C(=O)[O-])c3c2)s1 (protonated)
Cc1[nH+]cc(-c2ccc3cc(C([NH-])=O)n(C(=O)[O-])c3c2)s1 (3D coordinates assigned)
Cc1[nH+]cc(-c2ccc3cc(C([NH-])=O)n(C(=O)[O-])c3c2)s1 (optimized conformer: 103.67477744360488 kcal/mol)

>  <smiles>  (19) 
Cc1ncc(-c2ccc3cc(C(N)=O)n(C(=O)O)c3c2)s1

>  <score_type>  (19) 
oracle

>  <origin>  (19) 
adg

>  <m_score__min__energy>  (19) 
-7.21

>  <m_primary>  (19) 
energy

$$$$
19:0
     RDKit          3D

 39 41  0  0  0  0  0  0  0  0999 V2000
  147.8860  154.9030  132.9990 C   0  0  0  0  0  0  0  0  0  0  0  0
  147.5390  156.3600  133.0260 C   0  0  0  0  0  0  0  0  0  0  0  0
  148.5490  157.3350  132.8310 C   0  0  0  0  0  0  0  0  0  0  0  0
  148.2460  158.7060  132.8980 C   0  0  0  0  0  0  0  0  0  0  0  0
  146.9300  159.0690  133.1700 C   0  0  0  0  0  0  0  0  0  0  0  0
  146.3620  160.3160  133.3080 C   0  0  0  0  0  0  0  0  0  0  0  0
  145.0160  160.0810  133.5880 C   0  0  0  0  0  0  0  0  0  0  0  0
  143.9940  161.1430  133.7230 C   0  0  0  0  0  0  0  0  0  0  0  0
  142.6010  160.8220  133.7280 N   0  0  0  0  0  0  0  0  0  0  0  0
  144.3480  162.3440  133.8590 O   0  0  0  0  0  0  0  0  0  0  0  0
  144.7660  158.7430  133.6240 N   0  0  0  0  0  0  0  0  0  0  0  0
  143.5310  158.0820  133.9350 C   0  0  0  0  0  0  0  0  0  0  0  0
  142.9280  158.3660  135.0040 O   0  0  0  0  0  0  0  0  0  0  0  0
  142.8850  157.1720  132.9290 C   0  0  0  0  0  0  0  0  0  0  0  0
  141.4820  157.5340  132.7240 N   0  0  0  0  0  0  0  0  0  0  0  0
  141.1000  158.6810  132.1850 N   0  0  0  0  0  0  0  0  0  0  0  0
  139.7550  158.6600  132.1140 C   0  0  0  0  0  0  0  0  0  0  0  0
  138.9660  159.7380  131.5880 C   0  0  0  0  0  0  0  0  0  0  0  0
  138.3280  160.6050  131.1630 N   0  0  0  0  0  0  0  0  0  0  0  0
  139.2630  157.4710  132.6140 C   0  0  0  0  0  0  0  0  0  0  0  0
  140.3950  156.7730  132.9840 C   0  0  0  0  0  0  0  0  0  0  0  0
  140.4170  155.4140  133.6130 C   0  0  0  0  0  0  0  0  0  0  0  0
  145.9430  158.1370  133.3630 C   0  0  0  0  0  0  0  0  0  0  0  0
  146.2170  156.7670  133.3140 C   0  0  0  0  0  0  0  0  0  0  0  0
  147.9753  154.5282  134.0293 H   0  0  0  0  0  0  0  0  0  0  0  0
  147.0951  154.3474  132.4739 H   0  0  0  0  0  0  0  0  0  0  0  0
  148.8425  154.7635  132.4739 H   0  0  0  0  0  0  0  0  0  0  0  0
  149.5812  157.0154  132.6250 H   0  0  0  0  0  0  0  0  0  0  0  0
  149.0239  159.4676  132.7405 H   0  0  0  0  0  0  0  0  0  0  0  0
  146.8636  161.2907  133.2167 H   0  0  0  0  0  0  0  0  0  0  0  0
  141.8920  161.5770  133.8600 H   0  0  0  0  0  0  0  0  0  0  0  0
  142.2660  159.8490  133.5580 H   0  0  0  0  0  0  0  0  0  0  0  0
  143.4217  157.2537  131.9723 H   0  0  0  0  0  0  0  0  0  0  0  0
  142.9305  156.1402  133.3076 H   0  0  0  0  0  0  0  0  0  0  0  0
  138.2131  157.1536  132.6980 H   0  0  0  0  0  0  0  0  0  0  0  0
  140.4153  155.5168  134.7082 H   0  0  0  0  0  0  0  0  0  0  0  0
  139.5279  154.8490  133.2964 H   0  0  0  0  0  0  0  0  0  0  0  0
  141.3239  154.8781  133.2964 H   0  0  0  0  0  0  0  0  0  0  0  0
  145.4246  156.0258  133.4948 H   0  0  0  0  0  0  0  0  0  0  0  0
  1  2  1  0
  2  3  2  0
  3  4  1  0
  4  5  2  0
  5  6  1  0
  6  7  2  0
  7  8  1  0
  8  9  1  0
  8 10  2  0
  7 11  1  0
 11 12  1  0
 12 13  2  0
 12 14  1  0
 14 15  1  0
 15 16  1  0
 16 17  2  0
 17 18  1  0
 18 19  3  0
 17 20  1  0
 20 21  2  0
 21 22  1  0
 11 23  1  0
 23 24  2  0
 24  2  1  0
 23  5  1  0
 21 15  1  0
  1 25  1  0
  1 26  1  0
  1 27  1  0
  3 28  1  0
  4 29  1  0
  6 30  1  0
  9 31  1  0
  9 32  1  0
 14 33  1  0
 14 34  1  0
 20 35  1  0
 22 36  1  0
 22 37  1  0
 22 38  1  0
 24 39  1  0
M  END
>  <UniqueID>  (20) 
19

>  <SMILES>  (20) 
Cc1ccc2cc(C(N)=O)n(C(=O)Cn3nc(C#N)cc3C)c2c1

>  <Energy>  (20) 
107.32154078778969

>  <Genealogy>  (20) 
Cc1ccc2cc(C(N)=O)n(C(=O)Cn3nc(C#N)cc3C)c2c1 (3D coordinates assigned)
Cc1ccc2cc(C(N)=O)n(C(=O)Cn3nc(C#N)cc3C)c2c1 (optimized conformer: 107.32154078778969 kcal/mol)

>  <smiles>  (20) 
Cc1ccc2cc(C(N)=O)n(C(=O)Cn3nc(C#N)cc3C)c2c1

>  <score_type>  (20) 
oracle

>  <origin>  (20) 
adg

>  <m_score__min__energy>  (20) 
-7.8499999999999996

>  <m_primary>  (20) 
energy

$$$$
20:0
     RDKit          3D

 31 32  0  0  0  0  0  0  0  0999 V2000
  140.8290  158.2200  133.7110 C   0  0  0  0  0  0  0  0  0  0  0  0
  142.2250  158.7680  133.7000 C   0  0  0  0  0  0  0  0  0  0  0  0
  142.4400  160.1670  133.7730 C   0  0  0  0  0  0  0  0  0  0  0  0
  143.7420  160.6950  133.7360 C   0  0  0  0  0  0  0  0  0  0  0  0
  144.8040  159.8030  133.6110 C   0  0  0  0  0  0  0  0  0  0  0  0
  146.1610  160.0360  133.5630 C   0  0  0  0  0  0  0  0  0  0  0  0
  146.7470  158.7770  133.4330 C   0  0  0  0  0  0  0  0  0  0  0  0
  148.1990  158.5420  133.2600 C   0  0  0  0  0  0  0  0  0  0  0  0
  148.7560  157.2360  133.4220 N   0  0  0  0  0  0  0  0  0  0  0  0
  148.9650  159.5050  132.9860 O   0  0  0  0  0  0  0  0  0  0  0  0
  145.7890  157.8090  133.4040 N   0  0  0  0  0  0  0  0  0  0  0  0
  145.9720  156.3880  133.3420 C   0  0  0  0  0  0  0  0  0  0  0  0
  146.2400  155.8410  132.2390 O   0  0  0  0  0  0  0  0  0  0  0  0
  145.7290  155.5380  134.5510 C   0  0  0  0  0  0  0  0  0  0  0  0
  147.2740  154.8760  135.1450 S   0  0  0  0  0  0  0  0  0  0  0  0
  148.1010  155.9780  135.7440 O   0  0  0  0  0  0  0  0  0  0  0  0
  148.0240  154.2580  133.9990 O   0  0  0  0  0  0  0  0  0  0  0  0
  146.9770  153.7040  136.3110 O   0  0  0  0  0  0  0  0  0  0  0  0
  144.6080  158.4510  133.5120 C   0  0  0  0  0  0  0  0  0  0  0  0
  143.3260  157.8950  133.5560 C   0  0  0  0  0  0  0  0  0  0  0  0
  140.4948  158.0888  134.7508 H   0  0  0  0  0  0  0  0  0  0  0  0
  140.1560  158.9207  133.1952 H   0  0  0  0  0  0  0  0  0  0  0  0
  140.8123  157.2486  133.1952 H   0  0  0  0  0  0  0  0  0  0  0  0
  141.5792  160.8464  133.8595 H   0  0  0  0  0  0  0  0  0  0  0  0
  143.9167  161.7789  133.8037 H   0  0  0  0  0  0  0  0  0  0  0  0
  146.6732  161.0080  133.6159 H   0  0  0  0  0  0  0  0  0  0  0  0
  148.1520  156.4020  133.5860 H   0  0  0  0  0  0  0  0  0  0  0  0
  149.7870  157.0940  133.3320 H   0  0  0  0  0  0  0  0  0  0  0  0
  145.2663  156.1491  135.3399 H   0  0  0  0  0  0  0  0  0  0  0  0
  145.0580  154.7087  134.2827 H   0  0  0  0  0  0  0  0  0  0  0  0
  143.1788  156.8075  133.4806 H   0  0  0  0  0  0  0  0  0  0  0  0
  1  2  1  0
  2  3  2  0
  3  4  1  0
  4  5  2  0
  5  6  1  0
  6  7  2  0
  7  8  1  0
  8  9  1  0
  8 10  2  0
  7 11  1  0
 11 12  1  0
 12 13  2  0
 12 14  1  0
 14 15  1  0
 15 16  2  0
 15 17  2  0
 15 18  1  0
 11 19  1  0
 19 20  2  0
 20  2  1  0
 19  5  1  0
  1 21  1  0
  1 22  1  0
  1 23  1  0
  3 24  1  0
  4 25  1  0
  6 26  1  0
  9 27  1  0
  9 28  1  0
 14 29  1  0
 14 30  1  0
 20 31  1  0
M  CHG  1  18  -1
M  END
>  <UniqueID>  (21) 
20

>  <SMILES>  (21) 
Cc1ccc2cc(C(N)=O)n(C(=O)CS(=O)(=O)[O-])c2c1

>  <Energy>  (21) 
64.61535335478047

>  <Genealogy>  (21) 
Cc1ccc2cc(C(N)=O)n(C(=O)CS(=O)(=O)[O-])c2c1 (protonated)
Cc1ccc2cc(C(N)=O)n(C(=O)CS(=O)(=O)[O-])c2c1 (3D coordinates assigned)
Cc1ccc2cc(C(N)=O)n(C(=O)CS(=O)(=O)[O-])c2c1 (optimized conformer: 64.61535335478047 kcal/mol)

>  <smiles>  (21) 
Cc1ccc2cc(C(N)=O)n(C(=O)CS(=O)(=O)O)c2c1

>  <score_type>  (21) 
oracle

>  <origin>  (21) 
adg

>  <m_score__min__energy>  (21) 
-6.5999999999999996

>  <m_primary>  (21) 
energy

$$$$
21:0
     RDKit          3D

 28 29  0  0  0  0  0  0  0  0999 V2000
  146.0980  153.3280  134.2560 N   0  0  0  0  0  0  0  0  0  0  0  0
  146.7280  154.4030  134.9480 C   0  0  0  0  0  0  0  0  0  0  0  0
  146.9720  154.2870  136.1780 O   0  0  0  0  0  0  0  0  0  0  0  0
  147.0490  155.6520  134.2270 C   0  0  0  0  0  0  0  0  0  0  0  0
  146.4380  156.8750  134.4990 C   0  0  0  0  0  0  0  0  0  0  0  0
  147.0690  157.7880  133.6860 C   0  0  0  0  0  0  0  0  0  0  0  0
  146.8440  159.1520  133.5300 C   0  0  0  0  0  0  0  0  0  0  0  0
  147.6220  159.8440  132.5870 C   0  0  0  0  0  0  0  0  0  0  0  0
  148.6140  159.1690  131.8280 C   0  0  0  0  0  0  0  0  0  0  0  0
  149.3970  159.9110  130.7750 C   0  0  0  0  0  0  0  0  0  0  0  0
  150.7320  159.5670  130.8740 F   0  0  0  0  0  0  0  0  0  0  0  0
  149.2710  161.2790  130.9460 F   0  0  0  0  0  0  0  0  0  0  0  0
  148.9400  159.5900  129.5080 F   0  0  0  0  0  0  0  0  0  0  0  0
  148.7940  157.7770  132.0000 C   0  0  0  0  0  0  0  0  0  0  0  0
  148.0170  157.1170  132.9590 C   0  0  0  0  0  0  0  0  0  0  0  0
  148.0160  155.8030  133.2770 N   0  0  0  0  0  0  0  0  0  0  0  0
  148.8170  154.7760  132.6700 C   0  0  0  0  0  0  0  0  0  0  0  0
  149.9690  155.0530  132.2370 O   0  0  0  0  0  0  0  0  0  0  0  0
  148.3060  153.4800  132.5440 O   0  0  0  0  0  0  0  0  0  0  0  0
  148.9330  152.3370  133.1150 C   0  0  0  0  0  0  0  0  0  0  0  0
  149.6040  151.2940  131.8340 Cl  0  0  0  0  0  0  0  0  0  0  0  0
  146.6620  152.6220  133.7320 H   0  0  0  0  0  0  0  0  0  0  0  0
  145.6237  157.0690  135.2126 H   0  0  0  0  0  0  0  0  0  0  0  0
  146.0804  159.6726  134.1266 H   0  0  0  0  0  0  0  0  0  0  0  0
  147.4607  160.9214  132.4349 H   0  0  0  0  0  0  0  0  0  0  0  0
  149.5279  157.2255  131.3940 H   0  0  0  0  0  0  0  0  0  0  0  0
  149.7461  152.6635  133.7800 H   0  0  0  0  0  0  0  0  0  0  0  0
  148.1853  151.7666  133.6856 H   0  0  0  0  0  0  0  0  0  0  0  0
  1  2  1  0
  2  3  2  0
  2  4  1  0
  4  5  2  0
  5  6  1  0
  6  7  2  0
  7  8  1  0
  8  9  2  0
  9 10  1  0
 10 11  1  0
 10 12  1  0
 10 13  1  0
  9 14  1  0
 14 15  2  0
 15 16  1  0
 16 17  1  0
 17 18  2  0
 17 19  1  0
 19 20  1  0
 20 21  1  0
 16  4  1  0
 15  6  1  0
  1 22  1  0
  5 23  1  0
  7 24  1  0
  8 25  1  0
 14 26  1  0
 20 27  1  0
 20 28  1  0
M  CHG  1   1  -1
M  END
>  <UniqueID>  (22) 
21

>  <SMILES>  (22) 
[NH-]C(=O)c1cc2ccc(C(F)(F)F)cc2n1C(=O)OCCl

>  <Energy>  (22) 
66.18691851283462

>  <Genealogy>  (22) 
[NH-]C(=O)c1cc2ccc(C(F)(F)F)cc2n1C(=O)OCCl (protonated)
[NH-]C(=O)c1cc2ccc(C(F)(F)F)cc2n1C(=O)OCCl (3D coordinates assigned)
[NH-]C(=O)c1cc2ccc(C(F)(F)F)cc2n1C(=O)OCCl (optimized conformer: 66.18691851283462 kcal/mol)

>  <smiles>  (22) 
NC(=O)c1cc2ccc(C(F)(F)F)cc2n1C(=O)OCCl

>  <score_type>  (22) 
oracle

>  <origin>  (22) 
adg

>  <m_score__min__energy>  (22) 
-5.6500000000000004

>  <m_primary>  (22) 
energy

$$$$
22:0
     RDKit          3D

 44 46  0  0  0  0  0  0  0  0999 V2000
  139.4700  147.0070  130.0490 C   0  0  0  0  0  0  0  0  0  0  0  0
  138.8590  148.1310  129.6630 C   0  0  0  0  0  0  0  0  0  0  0  0
  138.5820  149.2450  130.6320 C   0  0  0  0  0  0  0  0  0  0  0  0
  139.7860  149.7110  131.2420 O   0  0  0  0  0  0  0  0  0  0  0  0
  139.8640  150.8820  132.0040 C   0  0  0  0  0  0  0  0  0  0  0  0
  138.8250  151.5570  132.2340 O   0  0  0  0  0  0  0  0  0  0  0  0
  141.1340  151.3100  132.5310 N   0  0  0  0  0  0  0  0  0  0  0  0
  142.2950  150.5940  132.5620 C   0  0  0  0  0  0  0  0  0  0  0  0
  142.4350  149.1600  132.2450 C   0  0  0  0  0  0  0  0  0  0  0  0
  141.3580  148.2490  132.4590 N   0  0  0  0  0  0  0  0  0  0  0  0
  143.5490  148.7190  131.8500 O   0  0  0  0  0  0  0  0  0  0  0  0
  143.3460  151.3760  133.0270 C   0  0  0  0  0  0  0  0  0  0  0  0
  142.7910  152.6040  133.3030 C   0  0  0  0  0  0  0  0  0  0  0  0
  143.3850  153.7570  133.8020 C   0  0  0  0  0  0  0  0  0  0  0  0
  142.5760  154.8890  133.9850 C   0  0  0  0  0  0  0  0  0  0  0  0
  141.1940  154.8570  133.6600 C   0  0  0  0  0  0  0  0  0  0  0  0
  140.3700  156.0260  133.8660 N   0  0  0  0  0  0  0  0  0  0  0  0
  140.7320  157.0150  134.8910 C   0  0  0  0  0  0  0  0  0  0  0  0
  139.4820  157.7620  135.3700 C   0  0  0  0  0  0  0  0  0  0  0  0
  138.7640  158.4210  134.2660 N   0  0  0  0  0  0  0  0  0  0  0  0
  138.8120  157.7080  132.9710 C   0  0  0  0  0  0  0  0  0  0  0  0
  139.1260  156.2110  133.1100 C   0  0  0  0  0  0  0  0  0  0  0  0
  140.6310  153.6640  133.1440 C   0  0  0  0  0  0  0  0  0  0  0  0
  141.4560  152.5410  132.9940 C   0  0  0  0  0  0  0  0  0  0  0  0
  139.6610  146.2063  129.3193 H   0  0  0  0  0  0  0  0  0  0  0  0
  139.7820  146.8824  131.0964 H   0  0  0  0  0  0  0  0  0  0  0  0
  138.5521  148.2430  128.6126 H   0  0  0  0  0  0  0  0  0  0  0  0
  138.1066  150.0784  130.0940 H   0  0  0  0  0  0  0  0  0  0  0  0
  137.9175  148.8628  131.4209 H   0  0  0  0  0  0  0  0  0  0  0  0
  141.4790  147.2350  132.2510 H   0  0  0  0  0  0  0  0  0  0  0  0
  140.4840  148.5560  132.9420 H   0  0  0  0  0  0  0  0  0  0  0  0
  144.3975  151.0766  133.1484 H   0  0  0  0  0  0  0  0  0  0  0  0
  144.4573  153.7816  134.0462 H   0  0  0  0  0  0  0  0  0  0  0  0
  143.0182  155.8132  134.3854 H   0  0  0  0  0  0  0  0  0  0  0  0
  141.1971  156.5002  135.7446 H   0  0  0  0  0  0  0  0  0  0  0  0
  141.4389  157.7383  134.4584 H   0  0  0  0  0  0  0  0  0  0  0  0
  138.8040  157.0428  135.8527 H   0  0  0  0  0  0  0  0  0  0  0  0
  139.8071  158.5436  136.0724 H   0  0  0  0  0  0  0  0  0  0  0  0
  137.7640  158.5290  134.5530 H   0  0  0  0  0  0  0  0  0  0  0  0
  137.8346  157.8149  132.4777 H   0  0  0  0  0  0  0  0  0  0  0  0
  139.6259  158.1572  132.3830 H   0  0  0  0  0  0  0  0  0  0  0  0
  138.3005  155.7136  133.6401 H   0  0  0  0  0  0  0  0  0  0  0  0
  139.2445  155.7729  132.1080 H   0  0  0  0  0  0  0  0  0  0  0  0
  139.5675  153.6199  132.8665 H   0  0  0  0  0  0  0  0  0  0  0  0
  1  2  2  0
  2  3  1  0
  3  4  1  0
  4  5  1  0
  5  6  2  0
  5  7  1  0
  7  8  1  0
  8  9  1  0
  9 10  1  0
  9 11  2  0
  8 12  2  0
 12 13  1  0
 13 14  2  0
 14 15  1  0
 15 16  2  0
 16 17  1  0
 17 18  1  0
 18 19  1  0
 19 20  1  0
 20 21  1  0
 21 22  1  0
 16 23  1  0
 23 24  2  0
 24  7  1  0
 24 13  1  0
 22 17  1  0
  1 25  1  0
  1 26  1  0
  2 27  1  0
  3 28  1  0
  3 29  1  0
 10 30  1  0
 10 31  1  0
 12 32  1  0
 14 33  1  0
 15 34  1  0
 18 35  1  0
 18 36  1  0
 19 37  1  0
 19 38  1  0
 20 39  1  0
 21 40  1  0
 21 41  1  0
 22 42  1  0
 22 43  1  0
 23 44  1  0
M  END
>  <UniqueID>  (23) 
22

>  <SMILES>  (23) 
C=CCOC(=O)n1c(C(N)=O)cc2ccc(N3CCNCC3)cc21

>  <Energy>  (23) 
87.70958638086964

>  <Genealogy>  (23) 
C=CCOC(=O)n1c(C(N)=O)cc2ccc(N3CCNCC3)cc21 (3D coordinates assigned)
C=CCOC(=O)n1c(C(N)=O)cc2ccc(N3CCNCC3)cc21 (nonaromatic ring conformer: 87.70958638086964 kcal/mol)

>  <smiles>  (23) 
C=CCOC(=O)n1c(C(N)=O)cc2ccc(N3CCNCC3)cc21

>  <score_type>  (23) 
oracle

>  <origin>  (23) 
adg

>  <m_score__min__energy>  (23) 
-7.7800000000000002

>  <m_primary>  (23) 
energy

$$$$
23:0
     RDKit          3D

 39 40  0  0  0  0  0  0  0  0999 V2000
  139.0730  160.0640  131.5250 C   0  0  0  0  0  0  0  0  0  0  0  0
  139.6240  158.8050  132.0500 N   0  0  0  0  0  0  0  0  0  0  0  0
  138.6870  158.1620  132.9840 C   0  0  0  0  0  0  0  0  0  0  0  0
  140.9850  158.9620  132.6120 C   0  0  0  0  0  0  0  0  0  0  0  0
  141.7370  157.6360  132.8370 C   0  0  0  0  0  0  0  0  0  0  0  0
  143.1750  157.8750  132.8790 N   0  0  0  0  0  0  0  0  0  0  0  0
  143.8170  158.6820  133.8720 C   0  0  0  0  0  0  0  0  0  0  0  0
  143.2280  158.9360  134.9590 O   0  0  0  0  0  0  0  0  0  0  0  0
  145.1210  159.2270  133.6220 N   0  0  0  0  0  0  0  0  0  0  0  0
  145.5210  160.5250  133.7360 C   0  0  0  0  0  0  0  0  0  0  0  0
  144.6410  161.6840  133.9960 C   0  0  0  0  0  0  0  0  0  0  0  0
  143.2490  161.5990  133.6990 N   0  0  0  0  0  0  0  0  0  0  0  0
  145.0980  162.7360  134.5140 O   0  0  0  0  0  0  0  0  0  0  0  0
  146.8880  160.6380  133.4900 C   0  0  0  0  0  0  0  0  0  0  0  0
  147.3150  159.3610  133.2120 C   0  0  0  0  0  0  0  0  0  0  0  0
  148.5900  158.8880  132.9110 C   0  0  0  0  0  0  0  0  0  0  0  0
  148.7470  157.5070  132.7000 C   0  0  0  0  0  0  0  0  0  0  0  0
  147.6360  156.6330  132.7860 C   0  0  0  0  0  0  0  0  0  0  0  0
  147.8260  155.1570  132.6080 C   0  0  0  0  0  0  0  0  0  0  0  0
  149.1770  154.8610  132.6160 F   0  0  0  0  0  0  0  0  0  0  0  0
  146.3610  157.1460  133.1080 C   0  0  0  0  0  0  0  0  0  0  0  0
  146.2300  158.5280  133.2970 C   0  0  0  0  0  0  0  0  0  0  0  0
  138.7873  160.7168  132.3629 H   0  0  0  0  0  0  0  0  0  0  0  0
  139.8327  160.5684  130.9097 H   0  0  0  0  0  0  0  0  0  0  0  0
  138.1871  159.8482  130.9097 H   0  0  0  0  0  0  0  0  0  0  0  0
  138.9964  158.3743  134.0180 H   0  0  0  0  0  0  0  0  0  0  0  0
  137.6738  158.5560  132.8162 H   0  0  0  0  0  0  0  0  0  0  0  0
  138.6901  157.0749  132.8162 H   0  0  0  0  0  0  0  0  0  0  0  0
  141.5749  159.5787  131.9179 H   0  0  0  0  0  0  0  0  0  0  0  0
  140.8646  159.4268  133.6017 H   0  0  0  0  0  0  0  0  0  0  0  0
  141.4142  157.1921  133.7903 H   0  0  0  0  0  0  0  0  0  0  0  0
  141.5107  156.9492  132.0081 H   0  0  0  0  0  0  0  0  0  0  0  0
  142.6800  160.7850  134.0230 H   0  0  0  0  0  0  0  0  0  0  0  0
  147.4962  161.5543  133.5133 H   0  0  0  0  0  0  0  0  0  0  0  0
  149.4473  159.5736  132.8406 H   0  0  0  0  0  0  0  0  0  0  0  0
  149.7423  157.1014  132.4659 H   0  0  0  0  0  0  0  0  0  0  0  0
  147.3286  154.6217  133.4302 H   0  0  0  0  0  0  0  0  0  0  0  0
  147.3882  154.8444  131.6485 H   0  0  0  0  0  0  0  0  0  0  0  0
  145.4928  156.4780  133.2080 H   0  0  0  0  0  0  0  0  0  0  0  0
  1  2  1  0
  2  3  1  0
  2  4  1  0
  4  5  1  0
  5  6  1  0
  6  7  1  0
  7  8  2  0
  7  9  1  0
  9 10  1  0
 10 11  1  0
 11 12  1  0
 11 13  2  0
 10 14  2  0
 14 15  1  0
 15 16  2  0
 16 17  1  0
 17 18  2  0
 18 19  1  0
 19 20  1  0
 18 21  1  0
 21 22  2  0
 22  9  1  0
 22 15  1  0
  1 23  1  0
  1 24  1  0
  1 25  1  0
  3 26  1  0
  3 27  1  0
  3 28  1  0
  4 29  1  0
  4 30  1  0
  5 31  1  0
  5 32  1  0
 12 33  1  0
 14 34  1  0
 16 35  1  0
 17 36  1  0
 19 37  1  0
 19 38  1  0
 21 39  1  0
M  CHG  2   6  -1  12  -1
M  END
>  <UniqueID>  (24) 
23

>  <SMILES>  (24) 
CN(C)CC[N-]C(=O)n1c(C([NH-])=O)cc2ccc(CF)cc21

>  <Energy>  (24) 
76.8357650849253

>  <Genealogy>  (24) 
CN(C)CC[N-]C(=O)n1c(C([NH-])=O)cc2ccc(CF)cc21 (protonated)
CN(C)CC[N-]C(=O)n1c(C([NH-])=O)cc2ccc(CF)cc21 (3D coordinates assigned)
CN(C)CC[N-]C(=O)n1c(C([NH-])=O)cc2ccc(CF)cc21 (optimized conformer: 76.8357650849253 kcal/mol)

>  <smiles>  (24) 
CN(C)CCNC(=O)n1c(C(N)=O)cc2ccc(CF)cc21

>  <score_type>  (24) 
oracle

>  <origin>  (24) 
adg

>  <m_score__min__energy>  (24) 
-6.3600000000000003

>  <m_primary>  (24) 
energy

$$$$
24:0
     RDKit          3D

 33 34  0  0  0  0  0  0  0  0999 V2000
  149.5870  157.7590  131.9470 N   0  0  0  0  0  0  0  0  0  0  0  0
  148.9560  158.9760  132.3400 C   0  0  0  0  0  0  0  0  0  0  0  0
  149.5960  160.0580  132.2500 O   0  0  0  0  0  0  0  0  0  0  0  0
  147.5590  158.9900  132.8230 C   0  0  0  0  0  0  0  0  0  0  0  0
  146.7840  160.1460  132.9200 C   0  0  0  0  0  0  0  0  0  0  0  0
  145.5540  159.7240  133.3680 C   0  0  0  0  0  0  0  0  0  0  0  0
  144.4040  160.4540  133.6610 C   0  0  0  0  0  0  0  0  0  0  0  0
  143.2830  159.7550  134.1380 C   0  0  0  0  0  0  0  0  0  0  0  0
  143.3290  158.3480  134.3130 C   0  0  0  0  0  0  0  0  0  0  0  0
  142.1320  157.6150  134.8590 C   0  0  0  0  0  0  0  0  0  0  0  0
  141.3040  158.5040  135.7890 C   0  0  0  0  0  0  0  0  0  0  0  0
  140.3470  157.7510  136.4460 F   0  0  0  0  0  0  0  0  0  0  0  0
  142.1370  159.0850  136.7290 F   0  0  0  0  0  0  0  0  0  0  0  0
  140.6800  159.5050  135.0650 F   0  0  0  0  0  0  0  0  0  0  0  0
  144.5160  157.6430  134.0170 C   0  0  0  0  0  0  0  0  0  0  0  0
  145.6110  158.3650  133.5300 C   0  0  0  0  0  0  0  0  0  0  0  0
  146.8320  157.9000  133.1930 N   0  0  0  0  0  0  0  0  0  0  0  0
  147.2850  156.5410  133.3120 C   0  0  0  0  0  0  0  0  0  0  0  0
  147.3890  155.8330  132.2760 O   0  0  0  0  0  0  0  0  0  0  0  0
  147.6440  155.9560  134.6180 C   0  0  0  0  0  0  0  0  0  0  0  0
  147.2370  154.7390  134.9980 C   0  0  0  0  0  0  0  0  0  0  0  0
  147.6010  154.1580  136.3000 C   0  0  0  0  0  0  0  0  0  0  0  0
  148.4750  154.6950  137.0320 O   0  0  0  0  0  0  0  0  0  0  0  0
  146.9710  152.9980  136.7310 O   0  0  0  0  0  0  0  0  0  0  0  0
  149.0420  156.9940  131.4920 H   0  0  0  0  0  0  0  0  0  0  0  0
  147.0914  161.1763  132.6875 H   0  0  0  0  0  0  0  0  0  0  0  0
  144.3749  161.5449  133.5229 H   0  0  0  0  0  0  0  0  0  0  0  0
  142.3605  160.3039  134.3782 H   0  0  0  0  0  0  0  0  0  0  0  0
  141.4996  157.2891  134.0200 H   0  0  0  0  0  0  0  0  0  0  0  0
  142.4916  156.7516  135.4380 H   0  0  0  0  0  0  0  0  0  0  0  0
  144.5782  156.5548  134.1654 H   0  0  0  0  0  0  0  0  0  0  0  0
  148.2704  156.5428  135.3060 H   0  0  0  0  0  0  0  0  0  0  0  0
  146.6079  154.1521  134.3126 H   0  0  0  0  0  0  0  0  0  0  0  0
  1  2  1  0
  2  3  2  0
  2  4  1  0
  4  5  2  0
  5  6  1  0
  6  7  2  0
  7  8  1  0
  8  9  2  0
  9 10  1  0
 10 11  1  0
 11 12  1  0
 11 13  1  0
 11 14  1  0
  9 15  1  0
 15 16  2  0
 16 17  1  0
 17 18  1  0
 18 19  2  0
 18 20  1  0
 20 21  2  3
 21 22  1  0
 22 23  2  0
 22 24  1  0
 17  4  1  0
 16  6  1  0
  1 25  1  0
  5 26  1  0
  7 27  1  0
  8 28  1  0
 10 29  1  0
 10 30  1  0
 15 31  1  0
 20 32  1  0
 21 33  1  0
M  CHG  2   1  -1  24  -1
M  END
>  <UniqueID>  (25) 
24

>  <SMILES>  (25) 
[NH-]C(=O)c1cc2ccc(CC(F)(F)F)cc2n1C(=O)C=CC(=O)[O-]

>  <Energy>  (25) 
68.79584409483368

>  <Genealogy>  (25) 
[NH-]C(=O)c1cc2ccc(CC(F)(F)F)cc2n1C(=O)C=CC(=O)[O-] (protonated)
[NH-]C(=O)c1cc2ccc(CC(F)(F)F)cc2n1C(=O)C=CC(=O)[O-] (3D coordinates assigned)
[NH-]C(=O)c1cc2ccc(CC(F)(F)F)cc2n1C(=O)C=CC(=O)[O-] (optimized conformer: 68.79584409483368 kcal/mol)

>  <smiles>  (25) 
NC(=O)c1cc2ccc(CC(F)(F)F)cc2n1C(=O)C=CC(=O)O

>  <score_type>  (25) 
oracle

>  <origin>  (25) 
adg

>  <m_score__min__energy>  (25) 
-6.6699999999999999

>  <m_primary>  (25) 
energy

$$$$
25:0
     RDKit          3D

 42 44  0  0  0  0  0  0  0  0999 V2000
  147.3340  155.2450  135.0590 C   0  0  0  0  0  0  0  0  0  0  0  0
  146.2520  155.9130  134.4200 O   0  0  0  0  0  0  0  0  0  0  0  0
  146.4010  156.6110  133.2180 C   0  0  0  0  0  0  0  0  0  0  0  0
  146.6290  155.9850  132.1450 O   0  0  0  0  0  0  0  0  0  0  0  0
  146.2960  158.0440  133.2030 N   0  0  0  0  0  0  0  0  0  0  0  0
  147.3020  158.9480  133.0310 C   0  0  0  0  0  0  0  0  0  0  0  0
  148.6950  158.6320  132.6550 C   0  0  0  0  0  0  0  0  0  0  0  0
  149.0040  157.4860  131.8600 N   0  0  0  0  0  0  0  0  0  0  0  0
  149.6200  159.4150  132.9940 O   0  0  0  0  0  0  0  0  0  0  0  0
  146.8350  160.2460  133.2120 C   0  0  0  0  0  0  0  0  0  0  0  0
  145.4930  160.1140  133.4890 C   0  0  0  0  0  0  0  0  0  0  0  0
  144.5380  161.0860  133.7690 C   0  0  0  0  0  0  0  0  0  0  0  0
  143.2320  160.6610  134.0590 C   0  0  0  0  0  0  0  0  0  0  0  0
  142.9070  159.2820  134.0750 C   0  0  0  0  0  0  0  0  0  0  0  0
  141.5310  158.8470  134.3960 C   0  0  0  0  0  0  0  0  0  0  0  0
  140.9700  158.6600  135.6530 C   0  0  0  0  0  0  0  0  0  0  0  0
  141.6450  158.8340  136.9760 C   0  0  0  0  0  0  0  0  0  0  0  0
  139.6840  158.2780  135.5260 N   0  0  0  0  0  0  0  0  0  0  0  0
  139.4040  158.2300  134.2320 N   0  0  0  0  0  0  0  0  0  0  0  0
  138.1020  157.8370  133.7070 C   0  0  0  0  0  0  0  0  0  0  0  0
  140.5020  158.5540  133.5130 C   0  0  0  0  0  0  0  0  0  0  0  0
  140.5610  158.6000  132.0150 C   0  0  0  0  0  0  0  0  0  0  0  0
  143.9030  158.3240  133.7870 C   0  0  0  0  0  0  0  0  0  0  0  0
  145.1920  158.7750  133.4800 C   0  0  0  0  0  0  0  0  0  0  0  0
  147.2165  155.3175  136.1503 H   0  0  0  0  0  0  0  0  0  0  0  0
  147.3391  154.1863  134.7603 H   0  0  0  0  0  0  0  0  0  0  0  0
  148.2827  155.7148  134.7603 H   0  0  0  0  0  0  0  0  0  0  0  0
  148.2480  156.9130  131.4210 H   0  0  0  0  0  0  0  0  0  0  0  0
  149.9980  157.2560  131.6360 H   0  0  0  0  0  0  0  0  0  0  0  0
  147.4145  161.1788  133.1475 H   0  0  0  0  0  0  0  0  0  0  0  0
  144.7983  162.1547  133.7633 H   0  0  0  0  0  0  0  0  0  0  0  0
  142.4527  161.4064  134.2761 H   0  0  0  0  0  0  0  0  0  0  0  0
  140.9220  158.6476  137.7838 H   0  0  0  0  0  0  0  0  0  0  0  0
  142.4789  158.1215  137.0587 H   0  0  0  0  0  0  0  0  0  0  0  0
  142.0306  159.8609  137.0587 H   0  0  0  0  0  0  0  0  0  0  0  0
  137.4170  157.6302  134.5425 H   0  0  0  0  0  0  0  0  0  0  0  0
  137.6938  158.6520  133.0912 H   0  0  0  0  0  0  0  0  0  0  0  0
  138.2128  156.9323  133.0912 H   0  0  0  0  0  0  0  0  0  0  0  0
  141.3923  159.2481  131.7005 H   0  0  0  0  0  0  0  0  0  0  0  0
  140.7192  157.5845  131.6229 H   0  0  0  0  0  0  0  0  0  0  0  0
  139.6148  159.0011  131.6229 H   0  0  0  0  0  0  0  0  0  0  0  0
  143.6716  157.2487  133.8035 H   0  0  0  0  0  0  0  0  0  0  0  0
  1  2  1  0
  2  3  1  0
  3  4  2  0
  3  5  1  0
  5  6  1  0
  6  7  1  0
  7  8  1  0
  7  9  2  0
  6 10  2  0
 10 11  1  0
 11 12  2  0
 12 13  1  0
 13 14  2  0
 14 15  1  0
 15 16  1  0
 16 17  1  0
 16 18  2  0
 18 19  1  0
 19 20  1  0
 19 21  1  0
 21 22  1  0
 14 23  1  0
 23 24  2  0
 24  5  1  0
 24 11  1  0
 21 15  2  0
  1 25  1  0
  1 26  1  0
  1 27  1  0
  8 28  1  0
  8 29  1  0
 10 30  1  0
 12 31  1  0
 13 32  1  0
 17 33  1  0
 17 34  1  0
 17 35  1  0
 20 36  1  0
 20 37  1  0
 20 38  1  0
 22 39  1  0
 22 40  1  0
 22 41  1  0
 23 42  1  0
M  END
>  <UniqueID>  (26) 
25

>  <SMILES>  (26) 
COC(=O)n1c(C(N)=O)cc2ccc(-c3c(C)nn(C)c3C)cc21

>  <Energy>  (26) 
113.94827740648888

>  <Genealogy>  (26) 
COC(=O)n1c(C(N)=O)cc2ccc(-c3c(C)nn(C)c3C)cc21 (3D coordinates assigned)
COC(=O)n1c(C(N)=O)cc2ccc(-c3c(C)nn(C)c3C)cc21 (optimized conformer: 113.94827740648888 kcal/mol)

>  <smiles>  (26) 
COC(=O)n1c(C(N)=O)cc2ccc(-c3c(C)nn(C)c3C)cc21

>  <score_type>  (26) 
oracle

>  <origin>  (26) 
adg

>  <m_score__min__energy>  (26) 
-7.6799999999999997

>  <m_primary>  (26) 
energy

$$$$
26:0
     RDKit          3D

 48 50  0  0  0  0  0  0  0  0999 V2000
  140.2710  155.5520  138.5920 C   0  0  0  0  0  0  0  0  0  0  0  0
  141.3050  156.4710  138.0760 N   0  0  0  0  0  0  0  0  0  0  0  0
  142.0440  155.7550  137.0150 C   0  0  0  0  0  0  0  0  0  0  0  0
  140.7510  157.7610  137.5610 C   0  0  1  0  0  0  0  0  0  0  0  0
  141.8130  158.6380  136.8260 C   0  0  0  0  0  0  0  0  0  0  0  0
  141.1440  159.6830  135.9270 C   0  0  0  0  0  0  0  0  0  0  0  0
  140.3790  159.0050  134.7590 C   0  0  1  0  0  0  0  0  0  0  0  0
  141.2050  158.9110  133.4920 C   0  0  0  0  0  0  0  0  0  0  0  0
  140.8090  159.4490  132.4210 O   0  0  0  0  0  0  0  0  0  0  0  0
  142.4920  158.2800  133.5230 N   0  0  0  0  0  0  0  0  0  0  0  0
  143.7060  158.8830  133.6640 C   0  0  0  0  0  0  0  0  0  0  0  0
  143.9440  160.3410  133.7510 C   0  0  0  0  0  0  0  0  0  0  0  0
  142.8420  161.2420  133.7320 N   0  0  0  0  0  0  0  0  0  0  0  0
  145.1140  160.8000  133.8410 O   0  0  0  0  0  0  0  0  0  0  0  0
  144.7150  157.9260  133.7600 C   0  0  0  0  0  0  0  0  0  0  0  0
  144.0750  156.7100  133.6720 C   0  0  0  0  0  0  0  0  0  0  0  0
  144.5940  155.4200  133.7000 C   0  0  0  0  0  0  0  0  0  0  0  0
  143.6980  154.3460  133.5800 C   0  0  0  0  0  0  0  0  0  0  0  0
  142.3050  154.5770  133.4410 C   0  0  0  0  0  0  0  0  0  0  0  0
  141.3680  153.4130  133.2490 C   0  0  0  0  0  0  0  0  0  0  0  0
  141.3860  152.6230  134.3810 F   0  0  0  0  0  0  0  0  0  0  0  0
  141.7460  152.6480  132.1580 F   0  0  0  0  0  0  0  0  0  0  0  0
  140.0780  153.8650  133.0350 F   0  0  0  0  0  0  0  0  0  0  0  0
  141.8190  155.9060  133.3910 C   0  0  0  0  0  0  0  0  0  0  0  0
  142.7350  156.9520  133.5300 C   0  0  0  0  0  0  0  0  0  0  0  0
  139.8560  157.5960  135.1400 C   0  0  2  0  0  0  0  0  0  0  0  0
  138.7240  157.3030  134.3940 F   0  0  0  0  0  0  0  0  0  0  0  0
  139.5180  157.4940  136.6340 C   0  0  0  0  0  0  0  0  0  0  0  0
  140.2851  155.5646  139.6918 H   0  0  0  0  0  0  0  0  0  0  0  0
  139.2821  155.8747  138.2343 H   0  0  0  0  0  0  0  0  0  0  0  0
  140.4754  154.5321  138.2343 H   0  0  0  0  0  0  0  0  0  0  0  0
  142.7620  155.0593  137.4738 H   0  0  0  0  0  0  0  0  0  0  0  0
  141.3350  155.1913  136.3908 H   0  0  0  0  0  0  0  0  0  0  0  0
  142.5850  156.4815  136.3908 H   0  0  0  0  0  0  0  0  0  0  0  0
  140.4290  158.3380  138.4404 H   0  0  0  0  0  0  0  0  0  0  0  0
  142.4329  159.1531  137.5746 H   0  0  0  0  0  0  0  0  0  0  0  0
  142.4306  157.9812  136.1958 H   0  0  0  0  0  0  0  0  0  0  0  0
  140.4351  160.2726  136.5269 H   0  0  0  0  0  0  0  0  0  0  0  0
  141.9247  160.3324  135.5041 H   0  0  0  0  0  0  0  0  0  0  0  0
  139.5186  159.6608  134.5599 H   0  0  0  0  0  0  0  0  0  0  0  0
  142.0390  161.0940  133.0850 H   0  0  0  0  0  0  0  0  0  0  0  0
  145.7937  158.1044  133.8805 H   0  0  0  0  0  0  0  0  0  0  0  0
  145.6743  155.2464  133.8128 H   0  0  0  0  0  0  0  0  0  0  0  0
  144.0799  153.3145  133.5939 H   0  0  0  0  0  0  0  0  0  0  0  0
  140.7478  156.1098  133.2465 H   0  0  0  0  0  0  0  0  0  0  0  0
  140.6564  156.8734  134.9229 H   0  0  0  0  0  0  0  0  0  0  0  0
  138.7374  158.2330  136.8678 H   0  0  0  0  0  0  0  0  0  0  0  0
  139.1803  156.4647  136.8249 H   0  0  0  0  0  0  0  0  0  0  0  0
  1  2  1  0
  2  3  1  0
  2  4  1  0
  4  5  1  0
  5  6  1  0
  6  7  1  0
  7  8  1  0
  8  9  2  0
  8 10  1  0
 10 11  1  0
 11 12  1  0
 12 13  1  0
 12 14  2  0
 11 15  2  0
 15 16  1  0
 16 17  2  0
 17 18  1  0
 18 19  2  0
 19 20  1  0
 20 21  1  0
 20 22  1  0
 20 23  1  0
 19 24  1  0
 24 25  2  0
  7 26  1  0
 26 27  1  0
 26 28  1  0
 28  4  1  0
 25 10  1  0
 25 16  1  0
  1 29  1  0
  1 30  1  0
  1 31  1  0
  3 32  1  0
  3 33  1  0
  3 34  1  0
  4 35  1  1
  5 36  1  0
  5 37  1  0
  6 38  1  0
  6 39  1  0
  7 40  1  6
 13 41  1  0
 15 42  1  0
 17 43  1  0
 18 44  1  0
 24 45  1  0
 26 46  1  6
 28 47  1  0
 28 48  1  0
M  CHG  1  13  -1
M  END
>  <UniqueID>  (27) 
26

>  <SMILES>  (27) 
CN(C)[C@H]1CC[C@@H](C(=O)n2c(C([NH-])=O)cc3ccc(C(F)(F)F)cc32)C(F)C1

>  <Energy>  (27) 
101.29865405976568

>  <Genealogy>  (27) 
CN(C)C1CCC(C(=O)n2c(C([NH-])=O)cc3ccc(C(F)(F)F)cc32)C(F)C1 (protonated)
CN(C)[C@H]1CC[C@@H](C(=O)n2c(C([NH-])=O)cc3ccc(C(F)(F)F)cc32)C(F)C1 (chirality)
CN(C)[C@H]1CC[C@@H](C(=O)n2c(C([NH-])=O)cc3ccc(C(F)(F)F)cc32)C(F)C1 (3D coordinates assigned)
CN(C)[C@H]1CC[C@@H](C(=O)n2c(C([NH-])=O)cc3ccc(C(F)(F)F)cc32)C(F)C1 (nonaromatic ring conformer: 101.29865405976568 kcal/mol)

>  <smiles>  (27) 
CN(C)C1CCC(C(=O)n2c(C(N)=O)cc3ccc(C(F)(F)F)cc32)C(F)C1

>  <score_type>  (27) 
oracle

>  <origin>  (27) 
adg

>  <m_score__min__energy>  (27) 
-7.5700000000000003

>  <m_primary>  (27) 
energy

$$$$
27:0
     RDKit          3D

 53 56  0  0  0  0  0  0  0  0999 V2000
  139.1510  147.3070  130.6280 C   0  0  0  0  0  0  0  0  0  0  0  0
  139.0370  148.8280  130.4070 C   0  0  0  0  0  0  0  0  0  0  0  0
  139.9910  149.2370  129.2750 C   0  0  0  0  0  0  0  0  0  0  0  0
  137.5990  149.2120  130.0090 C   0  0  0  0  0  0  0  0  0  0  0  0
  139.4430  149.5410  131.5840 O   0  0  0  0  0  0  0  0  0  0  0  0
  140.7360  149.5790  132.1290 C   0  0  0  0  0  0  0  0  0  0  0  0
  141.4970  148.5760  132.0700 O   0  0  0  0  0  0  0  0  0  0  0  0
  141.1950  150.7790  132.7600 N   0  0  0  0  0  0  0  0  0  0  0  0
  140.4030  151.9990  132.8660 C   0  0  0  0  0  0  0  0  0  0  0  0
  141.3240  152.9290  133.5760 C   0  0  0  0  0  0  0  0  0  0  0  0
  142.4790  152.3520  133.8470 C   0  0  0  0  0  0  0  0  0  0  0  0
  142.5140  150.9450  133.3600 C   0  0  0  0  0  0  0  0  0  0  0  0
  143.5910  153.3410  133.8580 C   0  0  0  0  0  0  0  0  0  0  0  0
  142.9200  154.6050  133.5500 N   0  0  0  0  0  0  0  0  0  0  0  0
  143.5850  155.8830  133.4370 C   0  0  0  0  0  0  0  0  0  0  0  0
  142.8350  157.0900  133.4690 C   0  0  0  0  0  0  0  0  0  0  0  0
  143.4710  158.3370  133.3680 C   0  0  0  0  0  0  0  0  0  0  0  0
  144.8530  158.3560  133.2240 C   0  0  0  0  0  0  0  0  0  0  0  0
  145.7170  159.4240  133.1360 C   0  0  0  0  0  0  0  0  0  0  0  0
  146.9840  158.8630  133.0220 C   0  0  0  0  0  0  0  0  0  0  0  0
  148.2100  159.6620  132.8350 C   0  0  0  0  0  0  0  0  0  0  0  0
  149.5020  159.1060  133.0880 N   0  0  0  0  0  0  0  0  0  0  0  0
  148.1210  160.8370  132.3890 O   0  0  0  0  0  0  0  0  0  0  0  0
  146.9130  157.5020  133.0520 N   0  0  0  0  0  0  0  0  0  0  0  0
  148.0130  156.5750  133.0830 C   0  0  0  0  0  0  0  0  0  0  0  0
  148.9540  156.6700  132.2520 O   0  0  0  0  0  0  0  0  0  0  0  0
  148.0450  155.5580  134.0290 O   0  0  0  0  0  0  0  0  0  0  0  0
  145.5980  157.2070  133.1730 C   0  0  0  0  0  0  0  0  0  0  0  0
  144.9920  155.9500  133.2940 C   0  0  0  0  0  0  0  0  0  0  0  0
  141.4840  154.3920  133.3610 C   0  0  0  0  0  0  0  0  0  0  0  0
  139.1670  147.0935  131.7070 H   0  0  0  0  0  0  0  0  0  0  0  0
  138.2880  146.8039  130.1674 H   0  0  0  0  0  0  0  0  0  0  0  0
  140.0793  146.9381  130.1674 H   0  0  0  0  0  0  0  0  0  0  0  0
  140.9213  149.6358  129.7056 H   0  0  0  0  0  0  0  0  0  0  0  0
  140.2214  148.3586  128.6543 H   0  0  0  0  0  0  0  0  0  0  0  0
  139.5136  150.0095  128.6543 H   0  0  0  0  0  0  0  0  0  0  0  0
  136.9979  149.3725  130.9162 H   0  0  0  0  0  0  0  0  0  0  0  0
  137.6179  150.1366  129.4133 H   0  0  0  0  0  0  0  0  0  0  0  0
  137.1545  148.4011  129.4133 H   0  0  0  0  0  0  0  0  0  0  0  0
  140.1374  152.3867  131.8715 H   0  0  0  0  0  0  0  0  0  0  0  0
  139.4451  151.8527  133.3865 H   0  0  0  0  0  0  0  0  0  0  0  0
  143.3096  150.8035  132.6137 H   0  0  0  0  0  0  0  0  0  0  0  0
  142.7269  150.2140  134.1540 H   0  0  0  0  0  0  0  0  0  0  0  0
  144.0730  153.3812  134.8460 H   0  0  0  0  0  0  0  0  0  0  0  0
  144.3933  153.0949  133.1468 H   0  0  0  0  0  0  0  0  0  0  0  0
  141.7409  157.0461  133.5744 H   0  0  0  0  0  0  0  0  0  0  0  0
  142.8924  159.2720  133.4018 H   0  0  0  0  0  0  0  0  0  0  0  0
  145.4598  160.4934  133.1524 H   0  0  0  0  0  0  0  0  0  0  0  0
  149.6200  158.0920  133.3000 H   0  0  0  0  0  0  0  0  0  0  0  0
  150.3570  159.6950  132.9790 H   0  0  0  0  0  0  0  0  0  0  0  0
  145.5979  155.0320  133.2782 H   0  0  0  0  0  0  0  0  0  0  0  0
  140.9005  154.9646  134.0969 H   0  0  0  0  0  0  0  0  0  0  0  0
  141.1256  154.7240  132.3754 H   0  0  0  0  0  0  0  0  0  0  0  0
  1  2  1  0
  2  3  1  0
  2  4  1  0
  2  5  1  0
  5  6  1  0
  6  7  2  0
  6  8  1  0
  8  9  1  0
  9 10  1  0
 10 11  2  0
 11 12  1  0
 11 13  1  0
 13 14  1  0
 14 15  1  0
 15 16  2  0
 16 17  1  0
 17 18  2  0
 18 19  1  0
 19 20  2  0
 20 21  1  0
 21 22  1  0
 21 23  2  0
 20 24  1  0
 24 25  1  0
 25 26  2  0
 25 27  1  0
 24 28  1  0
 28 29  2  0
 14 30  1  0
 12  8  1  0
 29 15  1  0
 30 10  1  0
 28 18  1  0
  1 31  1  0
  1 32  1  0
  1 33  1  0
  3 34  1  0
  3 35  1  0
  3 36  1  0
  4 37  1  0
  4 38  1  0
  4 39  1  0
  9 40  1  0
  9 41  1  0
 12 42  1  0
 12 43  1  0
 13 44  1  0
 13 45  1  0
 16 46  1  0
 17 47  1  0
 19 48  1  0
 22 49  1  0
 22 50  1  0
 29 51  1  0
 30 52  1  0
 30 53  1  0
M  CHG  1  27  -1
M  END
>  <UniqueID>  (28) 
27

>  <SMILES>  (28) 
CC(C)(C)OC(=O)N1CC2=C(C1)CN(c1ccc3cc(C(N)=O)n(C(=O)[O-])c3c1)C2

>  <Energy>  (28) 
113.97725754270495

>  <Genealogy>  (28) 
CC(C)(C)OC(=O)N1CC2=C(C1)CN(c1ccc3cc(C(N)=O)n(C(=O)[O-])c3c1)C2 (protonated)
CC(C)(C)OC(=O)N1CC2=C(C1)CN(c1ccc3cc(C(N)=O)n(C(=O)[O-])c3c1)C2 (3D coordinates assigned)
CC(C)(C)OC(=O)N1CC2=C(C1)CN(c1ccc3cc(C(N)=O)n(C(=O)[O-])c3c1)C2 (nonaromatic ring conformer: 113.97725754270495 kcal/mol)

>  <smiles>  (28) 
CC(C)(C)OC(=O)N1CC2=C(C1)CN(c1ccc3cc(C(N)=O)n(C(=O)O)c3c1)C2

>  <score_type>  (28) 
oracle

>  <origin>  (28) 
adg

>  <m_score__min__energy>  (28) 
-9.1600000000000001

>  <m_primary>  (28) 
energy

$$$$
28:0
     RDKit          3D

 50 53  0  0  0  0  0  0  0  0999 V2000
  140.6090  159.6980  137.4350 C   0  0  0  0  0  0  0  0  0  0  0  0
  140.6610  159.3470  136.0060 N   0  0  0  0  0  0  0  0  0  0  0  0
  139.8290  158.1640  135.7200 C   0  0  0  0  0  0  0  0  0  0  0  0
  140.7400  156.9600  135.4940 C   0  0  0  0  0  0  0  0  0  0  0  0
  142.1540  157.4830  135.6960 C   0  0  1  0  0  0  0  0  0  0  0  0
  143.2270  156.8650  134.7700 C   0  0  0  0  0  0  0  0  0  0  0  0
  143.6090  157.7110  133.5770 C   0  0  0  0  0  0  0  0  0  0  0  0
  142.7770  157.8770  132.6440 O   0  0  0  0  0  0  0  0  0  0  0  0
  144.9080  158.3170  133.4770 N   0  0  0  0  0  0  0  0  0  0  0  0
  145.2120  159.6470  133.5120 C   0  0  0  0  0  0  0  0  0  0  0  0
  144.2510  160.7520  133.7150 C   0  0  0  0  0  0  0  0  0  0  0  0
  142.8940  160.5950  133.3080 N   0  0  0  0  0  0  0  0  0  0  0  0
  144.6130  161.8400  134.2390 O   0  0  0  0  0  0  0  0  0  0  0  0
  146.5880  159.8330  133.4050 C   0  0  0  0  0  0  0  0  0  0  0  0
  147.1200  158.5700  133.2850 C   0  0  0  0  0  0  0  0  0  0  0  0
  148.4410  158.1710  133.1290 C   0  0  0  0  0  0  0  0  0  0  0  0
  148.7030  156.7970  133.0070 C   0  0  0  0  0  0  0  0  0  0  0  0
  147.6470  155.8460  133.0300 C   0  0  0  0  0  0  0  0  0  0  0  0
  147.9400  154.3930  132.9230 C   0  0  0  0  0  0  0  0  0  0  0  0
  147.1290  153.3340  133.3170 C   0  0  0  0  0  0  0  0  0  0  0  0
  147.7220  152.1800  132.9620 N   0  0  0  0  0  0  0  0  0  0  0  0
  148.8780  152.4560  132.3850 N   0  0  0  0  0  0  0  0  0  0  0  0
  149.7540  151.4600  131.7800 C   0  0  0  0  0  0  0  0  0  0  0  0
  149.0430  153.7910  132.3290 C   0  0  0  0  0  0  0  0  0  0  0  0
  146.3130  156.3020  133.1740 C   0  0  0  0  0  0  0  0  0  0  0  0
  146.0870  157.6740  133.3260 C   0  0  0  0  0  0  0  0  0  0  0  0
  142.0280  158.9970  135.5980 C   0  0  0  0  0  0  0  0  0  0  0  0
  140.7436  158.7897  138.0408 H   0  0  0  0  0  0  0  0  0  0  0  0
  141.4107  160.4149  137.6659 H   0  0  0  0  0  0  0  0  0  0  0  0
  139.6338  160.1516  137.6659 H   0  0  0  0  0  0  0  0  0  0  0  0
  139.1620  157.9672  136.5723 H   0  0  0  0  0  0  0  0  0  0  0  0
  139.2214  158.3449  134.8210 H   0  0  0  0  0  0  0  0  0  0  0  0
  140.5157  156.1653  136.2207 H   0  0  0  0  0  0  0  0  0  0  0  0
  140.6030  156.5242  134.4933 H   0  0  0  0  0  0  0  0  0  0  0  0
  142.5461  157.1740  136.6762 H   0  0  0  0  0  0  0  0  0  0  0  0
  144.1335  156.6903  135.3681 H   0  0  0  0  0  0  0  0  0  0  0  0
  142.7861  155.9431  134.3631 H   0  0  0  0  0  0  0  0  0  0  0  0
  142.6380  159.9520  132.5240 H   0  0  0  0  0  0  0  0  0  0  0  0
  147.1340  160.7879  133.4144 H   0  0  0  0  0  0  0  0  0  0  0  0
  149.2567  158.9085  133.1018 H   0  0  0  0  0  0  0  0  0  0  0  0
  149.7410  156.4514  132.8919 H   0  0  0  0  0  0  0  0  0  0  0  0
  146.1622  153.4251  133.8337 H   0  0  0  0  0  0  0  0  0  0  0  0
  147.3330  151.2190  133.0970 H   0  0  0  0  0  0  0  0  0  0  0  0
  150.2585  150.8863  132.5714 H   0  0  0  0  0  0  0  0  0  0  0  0
  149.1578  150.7779  131.1560 H   0  0  0  0  0  0  0  0  0  0  0  0
  150.5066  151.9642  131.1560 H   0  0  0  0  0  0  0  0  0  0  0  0
  149.9036  154.3156  131.8884 H   0  0  0  0  0  0  0  0  0  0  0  0
  145.4729  155.5919  133.1664 H   0  0  0  0  0  0  0  0  0  0  0  0
  142.7560  159.4797  136.2666 H   0  0  0  0  0  0  0  0  0  0  0  0
  142.2289  159.3397  134.5722 H   0  0  0  0  0  0  0  0  0  0  0  0
  1  2  1  0
  2  3  1  0
  3  4  1  0
  4  5  1  0
  5  6  1  0
  6  7  1  0
  7  8  2  0
  7  9  1  0
  9 10  1  0
 10 11  1  0
 11 12  1  0
 11 13  2  0
 10 14  2  0
 14 15  1  0
 15 16  2  0
 16 17  1  0
 17 18  2  0
 18 19  1  0
 19 20  1  0
 20 21  2  0
 21 22  1  0
 22 23  1  0
 22 24  1  0
 18 25  1  0
 25 26  2  0
  5 27  1  0
 27  2  1  0
 26  9  1  0
 26 15  1  0
 24 19  2  0
  1 28  1  0
  1 29  1  0
  1 30  1  0
  3 31  1  0
  3 32  1  0
  4 33  1  0
  4 34  1  0
  5 35  1  1
  6 36  1  0
  6 37  1  0
 12 38  1  0
 14 39  1  0
 16 40  1  0
 17 41  1  0
 20 42  1  0
 21 43  1  0
 23 44  1  0
 23 45  1  0
 23 46  1  0
 24 47  1  0
 25 48  1  0
 27 49  1  0
 27 50  1  0
M  CHG  2  12  -1  21   1
M  END
>  <UniqueID>  (29) 
28

>  <SMILES>  (29) 
CN1CC[C@@H](CC(=O)n2c(C([NH-])=O)cc3ccc(-c4c[nH+]n(C)c4)cc32)C1

>  <Energy>  (29) 
127.05998257267889

>  <Genealogy>  (29) 
CN1CCC(CC(=O)n2c(C([NH-])=O)cc3ccc(-c4c[nH+]n(C)c4)cc32)C1 (protonated)
CN1CC[C@@H](CC(=O)n2c(C([NH-])=O)cc3ccc(-c4c[nH+]n(C)c4)cc32)C1 (chirality)
CN1CC[C@@H](CC(=O)n2c(C([NH-])=O)cc3ccc(-c4c[nH+]n(C)c4)cc32)C1 (3D coordinates assigned)
CN1CC[C@@H](CC(=O)n2c(C([NH-])=O)cc3ccc(-c4c[nH+]n(C)c4)cc32)C1 (nonaromatic ring conformer: 127.05998257267889 kcal/mol)

>  <smiles>  (29) 
CN1CCC(CC(=O)n2c(C(N)=O)cc3ccc(-c4cnn(C)c4)cc32)C1

>  <score_type>  (29) 
oracle

>  <origin>  (29) 
adg

>  <m_score__min__energy>  (29) 
-8.7300000000000004

>  <m_primary>  (29) 
energy

$$$$
29:0
     RDKit          3D

 34 35  0  0  0  0  0  0  0  0999 V2000
  139.8940  159.7360  131.9180 C   0  0  0  0  0  0  0  0  0  0  0  0
  141.0460  159.0930  132.5380 N   0  0  0  0  0  0  0  0  0  0  0  0
  141.1480  158.9370  133.9590 C   0  0  0  0  0  0  0  0  0  0  0  0
  140.2280  159.3550  134.7130 O   0  0  0  0  0  0  0  0  0  0  0  0
  142.3280  158.2330  134.5560 C   0  0  0  0  0  0  0  0  0  0  0  0
  143.6020  158.8880  134.1010 C   0  0  0  0  0  0  0  0  0  0  0  0
  143.7100  160.3020  134.0920 C   0  0  0  0  0  0  0  0  0  0  0  0
  144.9090  160.9270  133.7110 C   0  0  0  0  0  0  0  0  0  0  0  0
  145.9810  160.1150  133.3510 C   0  0  0  0  0  0  0  0  0  0  0  0
  147.2580  160.4520  132.9620 C   0  0  0  0  0  0  0  0  0  0  0  0
  147.9080  159.2390  132.7380 C   0  0  0  0  0  0  0  0  0  0  0  0
  149.2870  159.1320  132.2180 C   0  0  0  0  0  0  0  0  0  0  0  0
  149.8480  157.8490  131.9530 N   0  0  0  0  0  0  0  0  0  0  0  0
  149.9880  160.1620  132.0350 O   0  0  0  0  0  0  0  0  0  0  0  0
  147.0680  158.1960  132.9870 N   0  0  0  0  0  0  0  0  0  0  0  0
  147.3570  156.7890  132.9360 C   0  0  0  0  0  0  0  0  0  0  0  0
  147.6070  156.0110  134.1890 C   0  0  0  0  0  0  0  0  0  0  0  0
  147.3420  156.1870  131.8300 O   0  0  0  0  0  0  0  0  0  0  0  0
  145.8920  158.7480  133.3540 C   0  0  0  0  0  0  0  0  0  0  0  0
  144.7150  158.0970  133.7390 C   0  0  0  0  0  0  0  0  0  0  0  0
  139.2191  160.1127  132.7007 H   0  0  0  0  0  0  0  0  0  0  0  0
  140.2345  160.5745  131.2927 H   0  0  0  0  0  0  0  0  0  0  0  0
  139.3591  159.0060  131.2927 H   0  0  0  0  0  0  0  0  0  0  0  0
  141.8110  158.7330  131.9260 H   0  0  0  0  0  0  0  0  0  0  0  0
  142.2648  158.2823  135.6531 H   0  0  0  0  0  0  0  0  0  0  0  0
  142.3252  157.1828  134.2288 H   0  0  0  0  0  0  0  0  0  0  0  0
  142.8459  160.9158  134.3864 H   0  0  0  0  0  0  0  0  0  0  0  0
  144.9980  162.0233  133.6975 H   0  0  0  0  0  0  0  0  0  0  0  0
  147.6765  161.4633  132.8514 H   0  0  0  0  0  0  0  0  0  0  0  0
  149.2860  157.1040  131.4830 H   0  0  0  0  0  0  0  0  0  0  0  0
  147.4025  156.6473  135.0627 H   0  0  0  0  0  0  0  0  0  0  0  0
  146.9461  155.1320  134.2129 H   0  0  0  0  0  0  0  0  0  0  0  0
  148.6562  155.6816  134.2129 H   0  0  0  0  0  0  0  0  0  0  0  0
  144.6578  156.9987  133.7593 H   0  0  0  0  0  0  0  0  0  0  0  0
  1  2  1  0
  2  3  1  0
  3  4  2  0
  3  5  1  0
  5  6  1  0
  6  7  2  0
  7  8  1  0
  8  9  2  0
  9 10  1  0
 10 11  2  0
 11 12  1  0
 12 13  1  0
 12 14  2  0
 11 15  1  0
 15 16  1  0
 16 17  1  0
 16 18  2  0
 15 19  1  0
 19 20  2  0
 20  6  1  0
 19  9  1  0
  1 21  1  0
  1 22  1  0
  1 23  1  0
  2 24  1  0
  5 25  1  0
  5 26  1  0
  7 27  1  0
  8 28  1  0
 10 29  1  0
 13 30  1  0
 17 31  1  0
 17 32  1  0
 17 33  1  0
 20 34  1  0
M  CHG  1  13  -1
M  END
>  <UniqueID>  (30) 
29

>  <SMILES>  (30) 
CNC(=O)Cc1ccc2cc(C([NH-])=O)n(C(C)=O)c2c1

>  <Energy>  (30) 
67.32499056607165

>  <Genealogy>  (30) 
CNC(=O)Cc1ccc2cc(C([NH-])=O)n(C(C)=O)c2c1 (protonated)
CNC(=O)Cc1ccc2cc(C([NH-])=O)n(C(C)=O)c2c1 (3D coordinates assigned)
CNC(=O)Cc1ccc2cc(C([NH-])=O)n(C(C)=O)c2c1 (optimized conformer: 67.32499056607165 kcal/mol)

>  <smiles>  (30) 
CNC(=O)Cc1ccc2cc(C(N)=O)n(C(C)=O)c2c1

>  <score_type>  (30) 
oracle

>  <origin>  (30) 
adg

>  <m_score__min__energy>  (30) 
-6.8099999999999996

>  <m_primary>  (30) 
energy

$$$$
30:0
     RDKit          3D

 38 39  0  0  0  0  0  0  0  0999 V2000
  149.2340  158.4230  132.1520 C   0  0  0  0  0  0  0  0  0  0  0  0
  148.6860  159.6400  132.2210 C   0  0  0  0  0  0  0  0  0  0  0  0
  148.9100  160.8510  130.7530 Br  0  0  0  0  0  0  0  0  0  0  0  0
  147.9400  160.0870  133.4510 C   0  0  0  0  0  0  0  0  0  0  0  0
  146.4990  160.1450  133.1960 N   0  0  0  0  0  0  0  0  0  0  0  0
  145.6120  159.0120  133.2620 C   0  0  0  0  0  0  0  0  0  0  0  0
  146.1640  157.7080  133.3360 C   0  0  0  0  0  0  0  0  0  0  0  0
  145.3360  156.5750  133.3820 C   0  0  0  0  0  0  0  0  0  0  0  0
  143.9600  156.7720  133.3650 C   0  0  0  0  0  0  0  0  0  0  0  0
  142.9340  155.8540  133.3720 C   0  0  0  0  0  0  0  0  0  0  0  0
  141.7630  156.6090  133.3310 C   0  0  0  0  0  0  0  0  0  0  0  0
  140.4020  156.0290  133.4100 C   0  0  0  0  0  0  0  0  0  0  0  0
  139.2660  156.7690  132.9590 N   0  0  0  0  0  0  0  0  0  0  0  0
  140.2380  154.8610  133.8500 O   0  0  0  0  0  0  0  0  0  0  0  0
  142.0540  157.9410  133.2980 N   0  0  0  0  0  0  0  0  0  0  0  0
  141.1360  159.0410  133.1900 C   0  0  0  0  0  0  0  0  0  0  0  0
  140.6690  159.3650  132.0640 O   0  0  0  0  0  0  0  0  0  0  0  0
  140.7780  159.7590  134.3340 O   0  0  0  0  0  0  0  0  0  0  0  0
  141.1880  159.3790  135.6430 C   0  0  0  0  0  0  0  0  0  0  0  0
  140.2580  158.2980  136.1750 C   0  0  0  0  0  0  0  0  0  0  0  0
  139.1140  158.2340  135.4000 F   0  0  0  0  0  0  0  0  0  0  0  0
  143.4030  158.0230  133.3190 C   0  0  0  0  0  0  0  0  0  0  0  0
  144.2040  159.1690  133.2560 C   0  0  0  0  0  0  0  0  0  0  0  0
  149.1135  157.7174  132.9872 H   0  0  0  0  0  0  0  0  0  0  0  0
  149.8055  158.1269  131.2600 H   0  0  0  0  0  0  0  0  0  0  0  0
  148.1329  159.3757  134.2676 H   0  0  0  0  0  0  0  0  0  0  0  0
  148.2888  161.0930  133.7274 H   0  0  0  0  0  0  0  0  0  0  0  0
  146.0900  161.0850  132.9870 H   0  0  0  0  0  0  0  0  0  0  0  0
  147.2566  157.5822  133.3577 H   0  0  0  0  0  0  0  0  0  0  0  0
  145.7631  155.5624  133.4300 H   0  0  0  0  0  0  0  0  0  0  0  0
  143.0201  154.7578  133.4033 H   0  0  0  0  0  0  0  0  0  0  0  0
  138.3160  156.3360  132.9830 H   0  0  0  0  0  0  0  0  0  0  0  0
  139.3540  157.7590  132.6410 H   0  0  0  0  0  0  0  0  0  0  0  0
  142.2168  158.9915  135.6064 H   0  0  0  0  0  0  0  0  0  0  0  0
  141.1481  160.2549  136.3073 H   0  0  0  0  0  0  0  0  0  0  0  0
  140.7734  157.3267  136.1444 H   0  0  0  0  0  0  0  0  0  0  0  0
  139.9789  158.5400  137.2111 H   0  0  0  0  0  0  0  0  0  0  0  0
  143.7503  160.1697  133.2030 H   0  0  0  0  0  0  0  0  0  0  0  0
  1  2  2  0
  2  3  1  0
  2  4  1  0
  4  5  1  0
  5  6  1  0
  6  7  2  0
  7  8  1  0
  8  9  2  0
  9 10  1  0
 10 11  2  0
 11 12  1  0
 12 13  1  0
 12 14  2  0
 11 15  1  0
 15 16  1  0
 16 17  2  0
 16 18  1  0
 18 19  1  0
 19 20  1  0
 20 21  1  0
 15 22  1  0
 22 23  2  0
 23  6  1  0
 22  9  1  0
  1 24  1  0
  1 25  1  0
  4 26  1  0
  4 27  1  0
  5 28  1  0
  7 29  1  0
  8 30  1  0
 10 31  1  0
 13 32  1  0
 13 33  1  0
 19 34  1  0
 19 35  1  0
 20 36  1  0
 20 37  1  0
 23 38  1  0
M  END
>  <UniqueID>  (31) 
30

>  <SMILES>  (31) 
C=C(Br)CNc1ccc2cc(C(N)=O)n(C(=O)OCCF)c2c1

>  <Energy>  (31) 
67.30682225065893

>  <Genealogy>  (31) 
C=C(Br)CNc1ccc2cc(C(N)=O)n(C(=O)OCCF)c2c1 (3D coordinates assigned)
C=C(Br)CNc1ccc2cc(C(N)=O)n(C(=O)OCCF)c2c1 (optimized conformer: 67.30682225065893 kcal/mol)

>  <smiles>  (31) 
C=C(Br)CNc1ccc2cc(C(N)=O)n(C(=O)OCCF)c2c1

>  <score_type>  (31) 
oracle

>  <origin>  (31) 
adg

>  <m_score__min__energy>  (31) 
-7.5300000000000002

>  <m_primary>  (31) 
energy

$$$$
31:0
     RDKit          3D

 49 50  0  0  0  0  0  0  0  0999 V2000
  137.6580  160.0790  130.8950 C   0  0  0  0  0  0  0  0  0  0  0  0
  139.1260  159.7330  131.1080 C   0  0  0  0  0  0  0  0  0  0  0  0
  139.2740  158.3480  131.4130 O   0  0  0  0  0  0  0  0  0  0  0  0
  139.0890  157.8210  132.6960 C   0  0  0  0  0  0  0  0  0  0  0  0
  138.5290  158.5010  133.6010 O   0  0  0  0  0  0  0  0  0  0  0  0
  139.6110  156.4560  133.0110 C   0  0  0  0  0  0  0  0  0  0  0  0
  140.6410  156.5290  134.1410 C   0  0  0  0  0  0  0  0  0  0  0  0
  141.0150  157.9180  134.4070 N   0  0  0  0  0  0  0  0  0  0  0  0
  142.3000  158.4940  134.1040 C   0  0  0  0  0  0  0  0  0  0  0  0
  142.4970  159.9020  134.0410 C   0  0  0  0  0  0  0  0  0  0  0  0
  143.7600  160.4380  133.7330 C   0  0  0  0  0  0  0  0  0  0  0  0
  144.8070  159.5530  133.5010 C   0  0  0  0  0  0  0  0  0  0  0  0
  146.1190  159.7950  133.1590 C   0  0  0  0  0  0  0  0  0  0  0  0
  146.7070  158.5360  133.0350 C   0  0  0  0  0  0  0  0  0  0  0  0
  148.1380  158.3040  132.7420 C   0  0  0  0  0  0  0  0  0  0  0  0
  148.5450  157.2440  131.8750 N   0  0  0  0  0  0  0  0  0  0  0  0
  149.0140  159.0520  133.2510 O   0  0  0  0  0  0  0  0  0  0  0  0
  145.7930  157.5610  133.2940 N   0  0  0  0  0  0  0  0  0  0  0  0
  145.9640  156.1410  133.1870 C   0  0  0  0  0  0  0  0  0  0  0  0
  145.9890  155.5980  132.0500 O   0  0  0  0  0  0  0  0  0  0  0  0
  146.2420  155.3150  134.4090 C   0  0  0  0  0  0  0  0  0  0  0  0
  147.7350  154.9800  134.4900 C   0  0  0  0  0  0  0  0  0  0  0  0
  148.1360  153.9730  133.4100 C   0  0  0  0  0  0  0  0  0  0  0  0
  148.5090  154.6460  132.2380 O   0  0  0  0  0  0  0  0  0  0  0  0
  144.6390  158.1960  133.5770 C   0  0  0  0  0  0  0  0  0  0  0  0
  143.3950  157.6320  133.8720 C   0  0  0  0  0  0  0  0  0  0  0  0
  137.1635  160.1956  131.8706 H   0  0  0  0  0  0  0  0  0  0  0  0
  137.5812  161.0198  130.3303 H   0  0  0  0  0  0  0  0  0  0  0  0
  137.1692  159.2715  130.3303 H   0  0  0  0  0  0  0  0  0  0  0  0
  139.6889  159.9639  130.1916 H   0  0  0  0  0  0  0  0  0  0  0  0
  139.5124  160.3258  131.9502 H   0  0  0  0  0  0  0  0  0  0  0  0
  138.7760  155.8110  133.3222 H   0  0  0  0  0  0  0  0  0  0  0  0
  140.0932  156.0413  132.1135 H   0  0  0  0  0  0  0  0  0  0  0  0
  140.2095  156.0898  135.0525 H   0  0  0  0  0  0  0  0  0  0  0  0
  141.5396  155.9712  133.8387 H   0  0  0  0  0  0  0  0  0  0  0  0
  140.2940  158.5240  134.8590 H   0  0  0  0  0  0  0  0  0  0  0  0
  141.6518  160.5786  134.2354 H   0  0  0  0  0  0  0  0  0  0  0  0
  143.9151  161.5256  133.6772 H   0  0  0  0  0  0  0  0  0  0  0  0
  146.6009  160.7732  133.0143 H   0  0  0  0  0  0  0  0  0  0  0  0
  147.8580  156.5620  131.4860 H   0  0  0  0  0  0  0  0  0  0  0  0
  149.5590  157.1110  131.6530 H   0  0  0  0  0  0  0  0  0  0  0  0
  145.9469  155.8805  135.3052 H   0  0  0  0  0  0  0  0  0  0  0  0
  145.6660  154.3797  134.3499 H   0  0  0  0  0  0  0  0  0  0  0  0
  148.3177  155.9030  134.3539 H   0  0  0  0  0  0  0  0  0  0  0  0
  147.9388  154.5340  135.4747 H   0  0  0  0  0  0  0  0  0  0  0  0
  148.9841  153.3720  133.7699 H   0  0  0  0  0  0  0  0  0  0  0  0
  147.2791  153.3187  133.1921 H   0  0  0  0  0  0  0  0  0  0  0  0
  147.7800  154.4970  131.5770 H   0  0  0  0  0  0  0  0  0  0  0  0
  143.2710  156.5402  133.9225 H   0  0  0  0  0  0  0  0  0  0  0  0
  1  2  1  0
  2  3  1  0
  3  4  1  0
  4  5  2  0
  4  6  1  0
  6  7  1  0
  7  8  1  0
  8  9  1  0
  9 10  2  0
 10 11  1  0
 11 12  2  0
 12 13  1  0
 13 14  2  0
 14 15  1  0
 15 16  1  0
 15 17  2  0
 14 18  1  0
 18 19  1  0
 19 20  2  0
 19 21  1  0
 21 22  1  0
 22 23  1  0
 23 24  1  0
 18 25  1  0
 25 26  2  0
 26  9  1  0
 25 12  1  0
  1 27  1  0
  1 28  1  0
  1 29  1  0
  2 30  1  0
  2 31  1  0
  6 32  1  0
  6 33  1  0
  7 34  1  0
  7 35  1  0
  8 36  1  0
 10 37  1  0
 11 38  1  0
 13 39  1  0
 16 40  1  0
 16 41  1  0
 21 42  1  0
 21 43  1  0
 22 44  1  0
 22 45  1  0
 23 46  1  0
 23 47  1  0
 24 48  1  0
 26 49  1  0
M  END
>  <UniqueID>  (32) 
31

>  <SMILES>  (32) 
CCOC(=O)CCNc1ccc2cc(C(N)=O)n(C(=O)CCCO)c2c1

>  <Energy>  (32) 
74.81655586647017

>  <Genealogy>  (32) 
CCOC(=O)CCNc1ccc2cc(C(N)=O)n(C(=O)CCCO)c2c1 (3D coordinates assigned)
CCOC(=O)CCNc1ccc2cc(C(N)=O)n(C(=O)CCCO)c2c1 (optimized conformer: 74.81655586647017 kcal/mol)

>  <smiles>  (32) 
CCOC(=O)CCNc1ccc2cc(C(N)=O)n(C(=O)CCCO)c2c1

>  <score_type>  (32) 
oracle

>  <origin>  (32) 
adg

>  <m_score__min__energy>  (32) 
-7.4199999999999999

>  <m_primary>  (32) 
energy

$$$$
32:0
     RDKit          3D

 51 54  0  0  0  0  0  0  0  0999 V2000
  138.1180  157.3990  133.4560 N   0  0  0  0  0  0  0  0  0  0  0  0
  139.0900  157.7160  134.4540 C   0  0  0  0  0  0  0  0  0  0  0  0
  138.7080  158.2290  135.5400 O   0  0  0  0  0  0  0  0  0  0  0  0
  140.5270  157.4340  134.2350 C   0  0  0  0  0  0  0  0  0  0  0  0
  141.1460  156.2150  134.5130 C   0  0  0  0  0  0  0  0  0  0  0  0
  142.4810  156.4140  134.2400 C   0  0  0  0  0  0  0  0  0  0  0  0
  143.5540  155.5380  134.3340 C   0  0  0  0  0  0  0  0  0  0  0  0
  144.8260  156.0080  133.9690 C   0  0  0  0  0  0  0  0  0  0  0  0
  145.0200  157.3460  133.5050 C   0  0  0  0  0  0  0  0  0  0  0  0
  146.3470  157.8230  133.1170 N   0  0  0  0  0  0  0  0  0  0  0  0
  147.4890  156.8680  133.1440 C   0  0  0  0  0  0  0  0  0  0  0  0
  148.8480  157.4400  132.6830 C   0  0  0  0  0  0  0  0  0  0  0  0
  148.6460  158.5440  131.7440 N   0  0  0  0  0  0  0  0  0  0  0  0
  149.8880  159.1630  131.2770 C   0  0  0  0  0  0  0  0  0  0  0  0
  149.5530  160.6270  130.9860 C   0  0  0  0  0  0  0  0  0  0  0  0
  148.1640  160.8520  131.5790 C   0  0  0  0  0  0  0  0  0  0  0  0
  147.9350  159.6100  132.4250 C   0  0  1  0  0  0  0  0  0  0  0  0
  146.4780  159.1980  132.5790 C   0  0  0  0  0  0  0  0  0  0  0  0
  143.8840  158.2000  133.4350 C   0  0  0  0  0  0  0  0  0  0  0  0
  142.6370  157.7030  133.8180 C   0  0  0  0  0  0  0  0  0  0  0  0
  141.4490  158.3420  133.8080 N   0  0  0  0  0  0  0  0  0  0  0  0
  141.2200  159.6880  133.3690 C   0  0  0  0  0  0  0  0  0  0  0  0
  142.1880  160.4900  133.2810 O   0  0  0  0  0  0  0  0  0  0  0  0
  139.8610  160.1140  132.9020 C   0  0  0  0  0  0  0  0  0  0  0  0
  139.5370  159.4460  131.5960 C   0  0  0  0  0  0  0  0  0  0  0  0
  139.7910  158.2590  131.4460 O   0  0  0  0  0  0  0  0  0  0  0  0
  138.8860  160.2220  130.4880 C   0  0  0  0  0  0  0  0  0  0  0  0
  137.5350  160.3920  130.7360 F   0  0  0  0  0  0  0  0  0  0  0  0
  138.3980  157.0350  132.5180 H   0  0  0  0  0  0  0  0  0  0  0  0
  137.1050  157.5690  133.6410 H   0  0  0  0  0  0  0  0  0  0  0  0
  140.6692  155.2916  134.8735 H   0  0  0  0  0  0  0  0  0  0  0  0
  143.4118  154.5051  134.6844 H   0  0  0  0  0  0  0  0  0  0  0  0
  145.6911  155.3324  134.0417 H   0  0  0  0  0  0  0  0  0  0  0  0
  147.6058  156.5091  134.1772 H   0  0  0  0  0  0  0  0  0  0  0  0
  147.2360  156.0757  132.4241 H   0  0  0  0  0  0  0  0  0  0  0  0
  149.4027  157.8067  133.5593 H   0  0  0  0  0  0  0  0  0  0  0  0
  149.4174  156.6443  132.1803 H   0  0  0  0  0  0  0  0  0  0  0  0
  150.6629  159.0966  132.0549 H   0  0  0  0  0  0  0  0  0  0  0  0
  150.2765  158.6554  130.3818 H   0  0  0  0  0  0  0  0  0  0  0  0
  150.2875  161.2920  131.4638 H   0  0  0  0  0  0  0  0  0  0  0  0
  149.5774  160.8453  129.9081 H   0  0  0  0  0  0  0  0  0  0  0  0
  148.1436  161.7600  132.1996 H   0  0  0  0  0  0  0  0  0  0  0  0
  147.3888  160.9975  130.8123 H   0  0  0  0  0  0  0  0  0  0  0  0
  148.2850  159.8181  133.4469 H   0  0  0  0  0  0  0  0  0  0  0  0
  145.9811  159.8980  133.2669 H   0  0  0  0  0  0  0  0  0  0  0  0
  146.0099  159.2210  131.5838 H   0  0  0  0  0  0  0  0  0  0  0  0
  143.9870  159.2374  133.0840 H   0  0  0  0  0  0  0  0  0  0  0  0
  139.1107  159.8283  133.6539 H   0  0  0  0  0  0  0  0  0  0  0  0
  139.8511  161.2052  132.7631 H   0  0  0  0  0  0  0  0  0  0  0  0
  139.3653  161.2089  130.4088 H   0  0  0  0  0  0  0  0  0  0  0  0
  139.0047  159.6627  129.5483 H   0  0  0  0  0  0  0  0  0  0  0  0
  1  2  1  0
  2  3  2  0
  2  4  1  0
  4  5  2  0
  5  6  1  0
  6  7  2  0
  7  8  1  0
  8  9  2  0
  9 10  1  0
 10 11  1  0
 11 12  1  0
 12 13  1  0
 13 14  1  0
 14 15  1  0
 15 16  1  0
 16 17  1  0
 17 18  1  0
  9 19  1  0
 19 20  2  0
 20 21  1  0
 21 22  1  0
 22 23  2  0
 22 24  1  0
 24 25  1  0
 25 26  2  0
 25 27  1  0
 27 28  1  0
 21  4  1  0
 20  6  1  0
 18 10  1  0
 17 13  1  0
  1 29  1  0
  1 30  1  0
  5 31  1  0
  7 32  1  0
  8 33  1  0
 11 34  1  0
 11 35  1  0
 12 36  1  0
 12 37  1  0
 14 38  1  0
 14 39  1  0
 15 40  1  0
 15 41  1  0
 16 42  1  0
 16 43  1  0
 17 44  1  1
 18 45  1  0
 18 46  1  0
 19 47  1  0
 24 48  1  0
 24 49  1  0
 27 50  1  0
 27 51  1  0
M  END
>  <UniqueID>  (33) 
32

>  <SMILES>  (33) 
NC(=O)c1cc2ccc(N3CCN4CCC[C@H]4C3)cc2n1C(=O)CC(=O)CF

>  <Energy>  (33) 
101.2322955917627

>  <Genealogy>  (33) 
NC(=O)c1cc2ccc(N3CCN4CCC[C@H]4C3)cc2n1C(=O)CC(=O)CF (chirality)
NC(=O)c1cc2ccc(N3CCN4CCC[C@H]4C3)cc2n1C(=O)CC(=O)CF (3D coordinates assigned)
NC(=O)c1cc2ccc(N3CCN4CCC[C@H]4C3)cc2n1C(=O)CC(=O)CF (nonaromatic ring conformer: 101.2322955917627 kcal/mol)

>  <smiles>  (33) 
NC(=O)c1cc2ccc(N3CCN4CCCC4C3)cc2n1C(=O)CC(=O)CF

>  <score_type>  (33) 
oracle

>  <origin>  (33) 
adg

>  <m_score__min__energy>  (33) 
-9.1699999999999999

>  <m_primary>  (33) 
energy

$$$$
33:0
     RDKit          3D

 32 33  0  0  0  0  0  0  0  0999 V2000
  140.7270  153.7360  133.1290 C   0  0  0  0  0  0  0  0  0  0  0  0
  140.9430  155.0280  133.3700 C   0  0  0  0  0  0  0  0  0  0  0  0
  139.8670  156.0360  133.3170 C   0  0  0  0  0  0  0  0  0  0  0  0
  138.7360  155.7380  132.8450 O   0  0  0  0  0  0  0  0  0  0  0  0
  140.0950  157.3610  133.8230 N   0  0  0  0  0  0  0  0  0  0  0  0
  140.0090  158.5350  133.1360 C   0  0  0  0  0  0  0  0  0  0  0  0
  139.5360  158.6730  131.7380 C   0  0  0  0  0  0  0  0  0  0  0  0
  138.3440  158.0190  131.2990 N   0  0  0  0  0  0  0  0  0  0  0  0
  140.1950  159.3600  130.9140 O   0  0  0  0  0  0  0  0  0  0  0  0
  140.3570  159.6060  133.9570 C   0  0  0  0  0  0  0  0  0  0  0  0
  140.6710  159.0460  135.1750 C   0  0  0  0  0  0  0  0  0  0  0  0
  141.0890  159.6490  136.3560 C   0  0  0  0  0  0  0  0  0  0  0  0
  141.3660  158.8200  137.4570 C   0  0  0  0  0  0  0  0  0  0  0  0
  141.2460  157.4100  137.3520 C   0  0  0  0  0  0  0  0  0  0  0  0
  141.5160  156.5290  138.5530 C   0  0  0  0  0  0  0  0  0  0  0  0
  142.0760  157.3630  139.7030 C   0  0  0  0  0  0  0  0  0  0  0  0
  140.3470  155.9130  138.9680 F   0  0  0  0  0  0  0  0  0  0  0  0
  142.4260  155.5370  138.2270 F   0  0  0  0  0  0  0  0  0  0  0  0
  140.8000  156.8380  136.1380 C   0  0  0  0  0  0  0  0  0  0  0  0
  140.5090  157.6890  135.0660 C   0  0  0  0  0  0  0  0  0  0  0  0
  141.5606  153.0201  133.1801 H   0  0  0  0  0  0  0  0  0  0  0  0
  139.7150  153.3848  132.8789 H   0  0  0  0  0  0  0  0  0  0  0  0
  141.9631  155.3562  133.6182 H   0  0  0  0  0  0  0  0  0  0  0  0
  138.0430  158.0950  130.3020 H   0  0  0  0  0  0  0  0  0  0  0  0
  137.7330  157.4950  131.9630 H   0  0  0  0  0  0  0  0  0  0  0  0
  140.3766  160.6726  133.6888 H   0  0  0  0  0  0  0  0  0  0  0  0
  141.1996  160.7411  136.4267 H   0  0  0  0  0  0  0  0  0  0  0  0
  141.6793  159.2695  138.4108 H   0  0  0  0  0  0  0  0  0  0  0  0
  141.7751  156.9148  140.6614 H   0  0  0  0  0  0  0  0  0  0  0  0
  143.1738  157.3868  139.6380 H   0  0  0  0  0  0  0  0  0  0  0  0
  141.6825  158.3882  139.6380 H   0  0  0  0  0  0  0  0  0  0  0  0
  140.6844  155.7486  136.0386 H   0  0  0  0  0  0  0  0  0  0  0  0
  1  2  2  0
  2  3  1  0
  3  4  2  0
  3  5  1  0
  5  6  1  0
  6  7  1  0
  7  8  1  0
  7  9  2  0
  6 10  2  0
 10 11  1  0
 11 12  2  0
 12 13  1  0
 13 14  2  0
 14 15  1  0
 15 16  1  0
 15 17  1  0
 15 18  1  0
 14 19  1  0
 19 20  2  0
 20  5  1  0
 20 11  1  0
  1 21  1  0
  1 22  1  0
  2 23  1  0
  8 24  1  0
  8 25  1  0
 10 26  1  0
 12 27  1  0
 13 28  1  0
 16 29  1  0
 16 30  1  0
 16 31  1  0
 19 32  1  0
M  END
>  <UniqueID>  (34) 
33

>  <SMILES>  (34) 
C=CC(=O)n1c(C(N)=O)cc2ccc(C(C)(F)F)cc21

>  <Energy>  (34) 
68.29639498233486

>  <Genealogy>  (34) 
C=CC(=O)n1c(C(N)=O)cc2ccc(C(C)(F)F)cc21 (3D coordinates assigned)
C=CC(=O)n1c(C(N)=O)cc2ccc(C(C)(F)F)cc21 (optimized conformer: 68.29639498233486 kcal/mol)

>  <smiles>  (34) 
C=CC(=O)n1c(C(N)=O)cc2ccc(C(C)(F)F)cc21

>  <score_type>  (34) 
oracle

>  <origin>  (34) 
adg

>  <m_score__min__energy>  (34) 
-6.8399999999999999

>  <m_primary>  (34) 
energy

$$$$
34:0
     RDKit          3D

 50 52  0  0  0  0  0  0  0  0999 V2000
  144.0040  163.2920  133.3350 N   0  0  0  0  0  0  0  0  0  0  0  0
  144.7190  162.3270  134.1030 C   0  0  0  0  0  0  0  0  0  0  0  0
  145.5480  162.7190  134.9610 O   0  0  0  0  0  0  0  0  0  0  0  0
  144.4510  160.8860  133.9080 C   0  0  0  0  0  0  0  0  0  0  0  0
  145.4490  159.9460  133.6610 C   0  0  0  0  0  0  0  0  0  0  0  0
  144.7900  158.7570  133.4510 C   0  0  0  0  0  0  0  0  0  0  0  0
  145.2950  157.4880  133.1830 C   0  0  0  0  0  0  0  0  0  0  0  0
  144.3820  156.4310  133.0450 C   0  0  0  0  0  0  0  0  0  0  0  0
  142.9860  156.6560  133.1730 C   0  0  0  0  0  0  0  0  0  0  0  0
  142.0520  155.5650  133.0250 N   0  0  0  0  0  0  0  0  0  0  0  0
  141.3660  155.2480  134.2920 C   0  0  0  0  0  0  0  0  0  0  0  0
  140.3030  156.2900  134.7100 C   0  0  0  0  0  0  0  0  0  0  0  0
  139.2130  156.5940  133.6550 C   0  0  2  0  0  0  0  0  0  0  0  0
  139.4990  155.8720  132.4840 O   0  0  0  0  0  0  0  0  0  0  0  0
  139.1410  158.0900  133.3020 C   0  0  0  0  0  0  0  0  0  0  0  0
  139.4820  158.2930  131.8730 N   0  0  0  0  0  0  0  0  0  0  0  0
  140.2540  159.5330  131.6560 C   0  0  0  0  0  0  0  0  0  0  0  0
  139.3790  160.7970  131.8410 C   0  0  0  0  0  0  0  0  0  0  0  0
  137.9900  160.5160  131.8250 O   0  0  0  0  0  0  0  0  0  0  0  0
  137.6840  159.6520  130.7540 C   0  0  0  0  0  0  0  0  0  0  0  0
  138.2880  158.2550  130.9940 C   0  0  0  0  0  0  0  0  0  0  0  0
  142.5140  157.9600  133.4530 C   0  0  0  0  0  0  0  0  0  0  0  0
  143.4470  158.9970  133.5730 C   0  0  0  0  0  0  0  0  0  0  0  0
  143.2210  160.2980  133.8590 N   0  0  0  0  0  0  0  0  0  0  0  0
  141.9470  160.9020  134.1280 C   0  0  0  0  0  0  0  0  0  0  0  0
  141.6070  161.9580  133.5320 O   0  0  0  0  0  0  0  0  0  0  0  0
  141.0600  160.3020  135.0130 O   0  0  0  0  0  0  0  0  0  0  0  0
  143.0330  163.5770  133.5960 H   0  0  0  0  0  0  0  0  0  0  0  0
  146.5352  160.1183  133.6386 H   0  0  0  0  0  0  0  0  0  0  0  0
  146.3772  157.3186  133.0824 H   0  0  0  0  0  0  0  0  0  0  0  0
  144.7523  155.4166  132.8353 H   0  0  0  0  0  0  0  0  0  0  0  0
  142.5850  154.7170  132.7210 H   0  0  0  0  0  0  0  0  0  0  0  0
  141.3550  155.7600  132.2710 H   0  0  0  0  0  0  0  0  0  0  0  0
  140.8695  154.2726  134.1818 H   0  0  0  0  0  0  0  0  0  0  0  0
  142.1353  155.2456  135.0782 H   0  0  0  0  0  0  0  0  0  0  0  0
  139.8024  155.9178  135.6161 H   0  0  0  0  0  0  0  0  0  0  0  0
  140.8489  157.2333  134.8587 H   0  0  0  0  0  0  0  0  0  0  0  0
  138.2437  156.2993  134.0836 H   0  0  0  0  0  0  0  0  0  0  0  0
  138.8620  156.1830  131.7880 H   0  0  0  0  0  0  0  0  0  0  0  0
  138.1219  158.4594  133.4890 H   0  0  0  0  0  0  0  0  0  0  0  0
  139.8593  158.6422  133.9257 H   0  0  0  0  0  0  0  0  0  0  0  0
  141.0839  159.5662  132.3772 H   0  0  0  0  0  0  0  0  0  0  0  0
  140.6280  159.5254  130.6216 H   0  0  0  0  0  0  0  0  0  0  0  0
  139.6318  161.2602  132.8062 H   0  0  0  0  0  0  0  0  0  0  0  0
  139.5886  161.4689  130.9957 H   0  0  0  0  0  0  0  0  0  0  0  0
  136.5915  159.5625  130.6626 H   0  0  0  0  0  0  0  0  0  0  0  0
  138.1106  160.0685  129.8296 H   0  0  0  0  0  0  0  0  0  0  0  0
  137.5248  157.6172  131.4639 H   0  0  0  0  0  0  0  0  0  0  0  0
  138.6049  157.8571  130.0187 H   0  0  0  0  0  0  0  0  0  0  0  0
  141.4381  158.1548  133.5737 H   0  0  0  0  0  0  0  0  0  0  0  0
  1  2  1  0
  2  3  2  0
  2  4  1  0
  4  5  2  0
  5  6  1  0
  6  7  2  0
  7  8  1  0
  8  9  2  0
  9 10  1  0
 10 11  1  0
 11 12  1  0
 12 13  1  0
 13 14  1  0
 13 15  1  0
 15 16  1  0
 16 17  1  0
 17 18  1  0
 18 19  1  0
 19 20  1  0
 20 21  1  0
  9 22  1  0
 22 23  2  0
 23 24  1  0
 24 25  1  0
 25 26  2  0
 25 27  1  0
 24  4  1  0
 23  6  1  0
 21 16  1  0
  1 28  1  0
  5 29  1  0
  7 30  1  0
  8 31  1  0
 10 32  1  0
 10 33  1  0
 11 34  1  0
 11 35  1  0
 12 36  1  0
 12 37  1  0
 13 38  1  1
 14 39  1  0
 15 40  1  0
 15 41  1  0
 17 42  1  0
 17 43  1  0
 18 44  1  0
 18 45  1  0
 20 46  1  0
 20 47  1  0
 21 48  1  0
 21 49  1  0
 22 50  1  0
M  CHG  3   1  -1  10   1  27  -1
M  END
>  <UniqueID>  (35) 
34

>  <SMILES>  (35) 
[NH-]C(=O)c1cc2ccc([NH2+]CC[C@H](O)CN3CCOCC3)cc2n1C(=O)[O-]

>  <Energy>  (35) 
101.43957007548812

>  <Genealogy>  (35) 
[NH-]C(=O)c1cc2ccc([NH2+]CC[C@H](O)CN3CCOCC3)cc2n1C(=O)[O-] (protonated)
[NH-]C(=O)c1cc2ccc([NH2+]CC[C@H](O)CN3CCOCC3)cc2n1C(=O)[O-] (3D coordinates assigned)
[NH-]C(=O)c1cc2ccc([NH2+]CC[C@H](O)CN3CCOCC3)cc2n1C(=O)[O-] (nonaromatic ring conformer: 101.43957007548812 kcal/mol)

>  <smiles>  (35) 
NC(=O)c1cc2ccc(NCC[C@H](O)CN3CCOCC3)cc2n1C(=O)O

>  <score_type>  (35) 
oracle

>  <origin>  (35) 
adg

>  <m_score__min__energy>  (35) 
-7.4500000000000002

>  <m_primary>  (35) 
energy

$$$$
35:0
     RDKit          3D

 43 45  0  0  0  0  0  0  0  0999 V2000
  140.2930  159.1480  132.4420 C   0  0  0  0  0  0  0  0  0  0  0  0
  140.9170  159.9370  133.5040 N   0  0  0  0  0  0  0  0  0  0  0  0
  140.6110  159.3600  134.8180 C   0  0  0  0  0  0  0  0  0  0  0  0
  141.6790  158.3420  135.2230 C   0  0  0  0  0  0  0  0  0  0  0  0
  142.9880  158.8500  134.9650 O   0  0  0  0  0  0  0  0  0  0  0  0
  143.6650  158.6740  133.7530 C   0  0  0  0  0  0  0  0  0  0  0  0
  143.0990  158.1040  132.7800 O   0  0  0  0  0  0  0  0  0  0  0  0
  145.0240  159.1180  133.6270 N   0  0  0  0  0  0  0  0  0  0  0  0
  145.4850  160.4010  133.5950 C   0  0  0  0  0  0  0  0  0  0  0  0
  144.6860  161.6180  133.8460 C   0  0  0  0  0  0  0  0  0  0  0  0
  143.2650  161.5990  133.7350 N   0  0  0  0  0  0  0  0  0  0  0  0
  145.2600  162.6790  134.2100 O   0  0  0  0  0  0  0  0  0  0  0  0
  146.8600  160.4190  133.3730 C   0  0  0  0  0  0  0  0  0  0  0  0
  147.2320  159.0970  133.2810 C   0  0  0  0  0  0  0  0  0  0  0  0
  148.4840  158.5330  133.0580 C   0  0  0  0  0  0  0  0  0  0  0  0
  148.5740  157.1340  132.9850 C   0  0  0  0  0  0  0  0  0  0  0  0
  147.4160  156.3230  133.1260 C   0  0  0  0  0  0  0  0  0  0  0  0
  147.5210  154.8440  133.0360 C   0  0  0  0  0  0  0  0  0  0  0  0
  146.3680  154.0420  133.0500 C   0  0  0  0  0  0  0  0  0  0  0  0
  146.4890  152.6520  132.9650 C   0  0  0  0  0  0  0  0  0  0  0  0
  147.7170  152.0770  132.8700 N   0  0  0  0  0  0  0  0  0  0  0  0
  148.8520  152.8260  132.8550 C   0  0  0  0  0  0  0  0  0  0  0  0
  150.0630  152.2220  132.7640 F   0  0  0  0  0  0  0  0  0  0  0  0
  148.7760  154.2190  132.9360 C   0  0  0  0  0  0  0  0  0  0  0  0
  146.1610  156.9370  133.3500 C   0  0  0  0  0  0  0  0  0  0  0  0
  146.1060  158.3330  133.4370 C   0  0  0  0  0  0  0  0  0  0  0  0
  139.6695  158.3597  132.8890 H   0  0  0  0  0  0  0  0  0  0  0  0
  139.6657  159.8026  131.8192 H   0  0  0  0  0  0  0  0  0  0  0  0
  141.0746  158.6884  131.8192 H   0  0  0  0  0  0  0  0  0  0  0  0
  141.9530  159.8920  133.3620 H   0  0  0  0  0  0  0  0  0  0  0  0
  140.5769  160.1650  135.5669 H   0  0  0  0  0  0  0  0  0  0  0  0
  139.6383  158.8493  134.7624 H   0  0  0  0  0  0  0  0  0  0  0  0
  141.5816  158.1252  136.2970 H   0  0  0  0  0  0  0  0  0  0  0  0
  141.5340  157.4254  134.6325 H   0  0  0  0  0  0  0  0  0  0  0  0
  142.7100  160.7780  134.0630 H   0  0  0  0  0  0  0  0  0  0  0  0
  147.5104  161.3021  133.2890 H   0  0  0  0  0  0  0  0  0  0  0  0
  149.3771  159.1647  132.9423 H   0  0  0  0  0  0  0  0  0  0  0  0
  149.5524  156.6602  132.8167 H   0  0  0  0  0  0  0  0  0  0  0  0
  145.3736  154.5060  133.1276 H   0  0  0  0  0  0  0  0  0  0  0  0
  145.5877  152.0215  132.9750 H   0  0  0  0  0  0  0  0  0  0  0  0
  147.7890  151.0360  132.8070 H   0  0  0  0  0  0  0  0  0  0  0  0
  149.6946  154.8239  132.9216 H   0  0  0  0  0  0  0  0  0  0  0  0
  145.2489  156.3308  133.4535 H   0  0  0  0  0  0  0  0  0  0  0  0
  1  2  1  0
  2  3  1  0
  3  4  1  0
  4  5  1  0
  5  6  1  0
  6  7  2  0
  6  8  1  0
  8  9  1  0
  9 10  1  0
 10 11  1  0
 10 12  2  0
  9 13  2  0
 13 14  1  0
 14 15  2  0
 15 16  1  0
 16 17  2  0
 17 18  1  0
 18 19  2  0
 19 20  1  0
 20 21  2  0
 21 22  1  0
 22 23  1  0
 22 24  2  0
 17 25  1  0
 25 26  2  0
 26  8  1  0
 26 14  1  0
 24 18  1  0
  1 27  1  0
  1 28  1  0
  1 29  1  0
  2 30  1  0
  3 31  1  0
  3 32  1  0
  4 33  1  0
  4 34  1  0
 11 35  1  0
 13 36  1  0
 15 37  1  0
 16 38  1  0
 19 39  1  0
 20 40  1  0
 21 41  1  0
 24 42  1  0
 25 43  1  0
M  CHG  2  11  -1  21   1
M  END
>  <UniqueID>  (36) 
35

>  <SMILES>  (36) 
CNCCOC(=O)n1c(C([NH-])=O)cc2ccc(-c3cc[nH+]c(F)c3)cc21

>  <Energy>  (36) 
84.67000912735782

>  <Genealogy>  (36) 
CNCCOC(=O)n1c(C([NH-])=O)cc2ccc(-c3cc[nH+]c(F)c3)cc21 (protonated)
CNCCOC(=O)n1c(C([NH-])=O)cc2ccc(-c3cc[nH+]c(F)c3)cc21 (3D coordinates assigned)
CNCCOC(=O)n1c(C([NH-])=O)cc2ccc(-c3cc[nH+]c(F)c3)cc21 (optimized conformer: 84.67000912735782 kcal/mol)

>  <smiles>  (36) 
CNCCOC(=O)n1c(C(N)=O)cc2ccc(-c3ccnc(F)c3)cc21

>  <score_type>  (36) 
oracle

>  <origin>  (36) 
adg

>  <m_score__min__energy>  (36) 
-6.3499999999999996

>  <m_primary>  (36) 
energy

$$$$
36:0
     RDKit          3D

 41 42  0  0  0  0  0  0  0  0999 V2000
  141.0060  159.3380  136.0190 C   0  0  0  0  0  0  0  0  0  0  0  0
  141.2450  159.0010  134.5510 C   0  0  0  0  0  0  0  0  0  0  0  0
  142.6480  159.3590  134.1460 C   0  0  0  0  0  0  0  0  0  0  0  0
  143.0540  160.7180  134.1040 C   0  0  0  0  0  0  0  0  0  0  0  0
  144.3760  161.0610  133.7760 C   0  0  0  0  0  0  0  0  0  0  0  0
  145.2670  160.0300  133.4960 C   0  0  0  0  0  0  0  0  0  0  0  0
  146.6120  160.0720  133.2000 C   0  0  0  0  0  0  0  0  0  0  0  0
  147.0000  158.7410  133.0550 C   0  0  0  0  0  0  0  0  0  0  0  0
  148.3740  158.3230  132.7060 C   0  0  0  0  0  0  0  0  0  0  0  0
  148.6230  157.1280  131.9640 N   0  0  0  0  0  0  0  0  0  0  0  0
  149.3440  159.0550  133.0370 O   0  0  0  0  0  0  0  0  0  0  0  0
  145.9400  157.9110  133.2610 N   0  0  0  0  0  0  0  0  0  0  0  0
  145.9420  156.4790  133.3500 C   0  0  0  0  0  0  0  0  0  0  0  0
  146.0110  155.7880  132.2990 O   0  0  0  0  0  0  0  0  0  0  0  0
  145.7330  155.7990  134.6710 C   0  0  0  0  0  0  0  0  0  0  0  0
  146.9580  154.9480  135.0200 C   0  0  0  0  0  0  0  0  0  0  0  0
  147.1460  153.8120  134.0050 C   0  0  0  0  0  0  0  0  0  0  0  0
  148.5370  153.8420  133.3670 C   0  0  0  0  0  0  0  0  0  0  0  0
  148.5470  154.6700  132.2340 O   0  0  0  0  0  0  0  0  0  0  0  0
  144.8890  158.7130  133.5270 C   0  0  0  0  0  0  0  0  0  0  0  0
  143.5840  158.3390  133.8660 C   0  0  0  0  0  0  0  0  0  0  0  0
  141.5261  158.6047  136.6529 H   0  0  0  0  0  0  0  0  0  0  0  0
  141.3924  160.3457  136.2315 H   0  0  0  0  0  0  0  0  0  0  0  0
  139.9272  159.3066  136.2315 H   0  0  0  0  0  0  0  0  0  0  0  0
  141.0887  157.9230  134.3977 H   0  0  0  0  0  0  0  0  0  0  0  0
  140.5404  159.5797  133.9357 H   0  0  0  0  0  0  0  0  0  0  0  0
  142.3261  161.5109  134.3306 H   0  0  0  0  0  0  0  0  0  0  0  0
  144.6969  162.1126  133.7416 H   0  0  0  0  0  0  0  0  0  0  0  0
  147.2451  160.9659  133.0995 H   0  0  0  0  0  0  0  0  0  0  0  0
  149.6040  156.8230  131.7820 H   0  0  0  0  0  0  0  0  0  0  0  0
  147.8460  156.5980  131.5120 H   0  0  0  0  0  0  0  0  0  0  0  0
  145.5822  156.5586  135.4522 H   0  0  0  0  0  0  0  0  0  0  0  0
  144.8475  155.1495  134.6074 H   0  0  0  0  0  0  0  0  0  0  0  0
  147.8533  155.5871  135.0146 H   0  0  0  0  0  0  0  0  0  0  0  0
  146.8057  154.5064  136.0159 H   0  0  0  0  0  0  0  0  0  0  0  0
  147.0113  152.8492  134.5197 H   0  0  0  0  0  0  0  0  0  0  0  0
  146.4012  153.9417  133.2059 H   0  0  0  0  0  0  0  0  0  0  0  0
  149.2620  154.2251  134.1002 H   0  0  0  0  0  0  0  0  0  0  0  0
  148.8066  152.8207  133.0601 H   0  0  0  0  0  0  0  0  0  0  0  0
  147.6860  154.5250  131.7640 H   0  0  0  0  0  0  0  0  0  0  0  0
  143.2947  157.2788  133.9132 H   0  0  0  0  0  0  0  0  0  0  0  0
  1  2  1  0
  2  3  1  0
  3  4  2  0
  4  5  1  0
  5  6  2  0
  6  7  1  0
  7  8  2  0
  8  9  1  0
  9 10  1  0
  9 11  2  0
  8 12  1  0
 12 13  1  0
 13 14  2  0
 13 15  1  0
 15 16  1  0
 16 17  1  0
 17 18  1  0
 18 19  1  0
 12 20  1  0
 20 21  2  0
 21  3  1  0
 20  6  1  0
  1 22  1  0
  1 23  1  0
  1 24  1  0
  2 25  1  0
  2 26  1  0
  4 27  1  0
  5 28  1  0
  7 29  1  0
 10 30  1  0
 10 31  1  0
 15 32  1  0
 15 33  1  0
 16 34  1  0
 16 35  1  0
 17 36  1  0
 17 37  1  0
 18 38  1  0
 18 39  1  0
 19 40  1  0
 21 41  1  0
M  END
>  <UniqueID>  (37) 
36

>  <SMILES>  (37) 
CCc1ccc2cc(C(N)=O)n(C(=O)CCCCO)c2c1

>  <Energy>  (37) 
70.2585062916457

>  <Genealogy>  (37) 
CCc1ccc2cc(C(N)=O)n(C(=O)CCCCO)c2c1 (3D coordinates assigned)
CCc1ccc2cc(C(N)=O)n(C(=O)CCCCO)c2c1 (optimized conformer: 70.2585062916457 kcal/mol)

>  <smiles>  (37) 
CCc1ccc2cc(C(N)=O)n(C(=O)CCCCO)c2c1

>  <score_type>  (37) 
oracle

>  <origin>  (37) 
adg

>  <m_score__min__energy>  (37) 
-7.0700000000000003

>  <m_primary>  (37) 
energy

$$$$
37:0
     RDKit          3D

 39 40  0  0  0  0  0  0  0  0999 V2000
  150.6260  150.4360  131.6460 C   0  0  0  0  0  0  0  0  0  0  0  0
  149.2250  150.8400  132.1500 C   0  0  0  0  0  0  0  0  0  0  0  0
  148.4550  149.5840  132.6090 C   0  0  0  0  0  0  0  0  0  0  0  0
  148.5180  151.4830  131.1140 O   0  0  0  0  0  0  0  0  0  0  0  0
  149.3830  151.8340  133.3190 C   0  0  0  0  0  0  0  0  0  0  0  0
  148.2120  152.6990  133.4220 N   0  0  0  0  0  0  0  0  0  0  0  0
  148.1080  153.9590  132.7560 C   0  0  0  0  0  0  0  0  0  0  0  0
  149.0890  154.3990  132.0990 O   0  0  0  0  0  0  0  0  0  0  0  0
  146.8860  154.7170  132.8290 N   0  0  0  0  0  0  0  0  0  0  0  0
  145.6110  154.2320  132.8390 C   0  0  0  0  0  0  0  0  0  0  0  0
  145.2180  152.8290  132.6150 C   0  0  0  0  0  0  0  0  0  0  0  0
  146.1050  151.9120  131.9710 N   0  0  0  0  0  0  0  0  0  0  0  0
  144.0590  152.4510  132.9370 O   0  0  0  0  0  0  0  0  0  0  0  0
  144.6930  155.2560  133.0440 C   0  0  0  0  0  0  0  0  0  0  0  0
  145.4450  156.4050  133.1430 C   0  0  0  0  0  0  0  0  0  0  0  0
  145.0430  157.7150  133.3740 C   0  0  0  0  0  0  0  0  0  0  0  0
  146.0370  158.7030  133.4740 C   0  0  0  0  0  0  0  0  0  0  0  0
  147.4070  158.3670  133.3410 C   0  0  0  0  0  0  0  0  0  0  0  0
  148.4670  159.4300  133.4900 C   0  0  0  0  0  0  0  0  0  0  0  0
  147.8880  160.6790  133.3540 F   0  0  0  0  0  0  0  0  0  0  0  0
  149.0720  159.3460  134.7330 F   0  0  0  0  0  0  0  0  0  0  0  0
  149.4470  159.2780  132.5250 F   0  0  0  0  0  0  0  0  0  0  0  0
  147.7770  157.0170  133.1390 C   0  0  0  0  0  0  0  0  0  0  0  0
  146.7650  156.0550  133.0150 C   0  0  0  0  0  0  0  0  0  0  0  0
  151.2845  150.2461  132.5064 H   0  0  0  0  0  0  0  0  0  0  0  0
  150.5474  149.5239  131.0361 H   0  0  0  0  0  0  0  0  0  0  0  0
  151.0451  151.2499  131.0361 H   0  0  0  0  0  0  0  0  0  0  0  0
  148.4333  149.5486  133.7082 H   0  0  0  0  0  0  0  0  0  0  0  0
  147.4257  149.6235  132.2230 H   0  0  0  0  0  0  0  0  0  0  0  0
  148.9571  148.6846  132.2230 H   0  0  0  0  0  0  0  0  0  0  0  0
  148.5270  152.4600  131.2960 H   0  0  0  0  0  0  0  0  0  0  0  0
  149.5007  151.2722  134.2574 H   0  0  0  0  0  0  0  0  0  0  0  0
  150.2693  152.4589  133.1348 H   0  0  0  0  0  0  0  0  0  0  0  0
  147.0090  152.2360  131.5610 H   0  0  0  0  0  0  0  0  0  0  0  0
  145.8210  150.9180  131.8360 H   0  0  0  0  0  0  0  0  0  0  0  0
  143.5987  155.1670  133.1125 H   0  0  0  0  0  0  0  0  0  0  0  0
  143.9780  157.9709  133.4755 H   0  0  0  0  0  0  0  0  0  0  0  0
  145.7485  159.7485  133.6575 H   0  0  0  0  0  0  0  0  0  0  0  0
  148.8367  156.7280  133.0804 H   0  0  0  0  0  0  0  0  0  0  0  0
  1  2  1  0
  2  3  1  0
  2  4  1  0
  2  5  1  0
  5  6  1  0
  6  7  1  0
  7  8  2  0
  7  9  1  0
  9 10  1  0
 10 11  1  0
 11 12  1  0
 11 13  2  0
 10 14  2  0
 14 15  1  0
 15 16  2  0
 16 17  1  0
 17 18  2  0
 18 19  1  0
 19 20  1  0
 19 21  1  0
 19 22  1  0
 18 23  1  0
 23 24  2  0
 24  9  1  0
 24 15  1  0
  1 25  1  0
  1 26  1  0
  1 27  1  0
  3 28  1  0
  3 29  1  0
  3 30  1  0
  4 31  1  0
  5 32  1  0
  5 33  1  0
 12 34  1  0
 12 35  1  0
 14 36  1  0
 16 37  1  0
 17 38  1  0
 23 39  1  0
M  CHG  1   6  -1
M  END
>  <UniqueID>  (38) 
37

>  <SMILES>  (38) 
CC(C)(O)C[N-]C(=O)n1c(C(N)=O)cc2ccc(C(F)(F)F)cc21

>  <Energy>  (38) 
73.74731912231287

>  <Genealogy>  (38) 
CC(C)(O)C[N-]C(=O)n1c(C(N)=O)cc2ccc(C(F)(F)F)cc21 (protonated)
CC(C)(O)C[N-]C(=O)n1c(C(N)=O)cc2ccc(C(F)(F)F)cc21 (3D coordinates assigned)
CC(C)(O)C[N-]C(=O)n1c(C(N)=O)cc2ccc(C(F)(F)F)cc21 (optimized conformer: 73.74731912231287 kcal/mol)

>  <smiles>  (38) 
CC(C)(O)CNC(=O)n1c(C(N)=O)cc2ccc(C(F)(F)F)cc21

>  <score_type>  (38) 
oracle

>  <origin>  (38) 
adg

>  <m_score__min__energy>  (38) 
-7.2999999999999998

>  <m_primary>  (38) 
energy

$$$$
38:0
     RDKit          3D

 44 45  0  0  0  0  0  0  0  0999 V2000
  144.2906  155.2284  135.1438 H   0  0  0  0  0  0  0  0  0  0  0  0
  145.1920  155.5880  134.6260 C   0  0  0  0  0  0  0  0  0  0  0  0
  144.9890  156.3360  133.3630 C   0  0  0  0  0  0  0  0  0  0  0  0
  144.8830  155.7380  132.2590 O   0  0  0  0  0  0  0  0  0  0  0  0
  144.9390  157.7710  133.3900 N   0  0  0  0  0  0  0  0  0  0  0  0
  145.9330  158.6400  133.0500 C   0  0  0  0  0  0  0  0  0  0  0  0
  147.3200  158.2570  132.6990 C   0  0  0  0  0  0  0  0  0  0  0  0
  148.2900  158.9410  133.1200 O   0  0  0  0  0  0  0  0  0  0  0  0
  147.5790  157.1270  131.8640 N   0  0  0  0  0  0  0  0  0  0  0  0
  146.8110  156.4970  131.5440 H   0  0  0  0  0  0  0  0  0  0  0  0
  148.5600  156.8910  131.5940 H   0  0  0  0  0  0  0  0  0  0  0  0
  145.4820  159.9570  133.1510 C   0  0  0  0  0  0  0  0  0  0  0  0
  146.0533  160.8747  132.9476 H   0  0  0  0  0  0  0  0  0  0  0  0
  144.1710  159.8640  133.5590 C   0  0  0  0  0  0  0  0  0  0  0  0
  143.2370  160.8640  133.8050 C   0  0  0  0  0  0  0  0  0  0  0  0
  143.5040  161.9261  133.7018 H   0  0  0  0  0  0  0  0  0  0  0  0
  141.9430  160.4780  134.1890 C   0  0  0  0  0  0  0  0  0  0  0  0
  141.1877  161.2488  134.4021 H   0  0  0  0  0  0  0  0  0  0  0  0
  141.5960  159.1060  134.3060 C   0  0  0  0  0  0  0  0  0  0  0  0
  140.1890  158.7180  134.7280 C   0  0  1  0  0  0  0  0  0  0  0  0
  139.5644  159.6214  134.6666 H   0  0  0  0  0  0  0  0  0  0  0  0
  139.5820  157.6810  133.7720 C   0  0  0  0  0  0  0  0  0  0  0  0
  139.1109  156.8761  134.3553 H   0  0  0  0  0  0  0  0  0  0  0  0
  138.8250  158.1657  133.1379 H   0  0  0  0  0  0  0  0  0  0  0  0
  140.3753  157.2583  133.1379 H   0  0  0  0  0  0  0  0  0  0  0  0
  140.1500  158.2390  136.1910 C   0  0  0  0  0  0  0  0  0  0  0  0
  140.9590  157.1270  136.3430 F   0  0  0  0  0  0  0  0  0  0  0  0
  138.8620  157.9120  136.5740 F   0  0  0  0  0  0  0  0  0  0  0  0
  140.6210  159.2390  137.0250 F   0  0  0  0  0  0  0  0  0  0  0  0
  142.5800  158.1190  134.0480 C   0  0  0  0  0  0  0  0  0  0  0  0
  142.3374  157.0490  134.1269 H   0  0  0  0  0  0  0  0  0  0  0  0
  143.8660  158.5360  133.6910 C   0  0  0  0  0  0  0  0  0  0  0  0
  146.3740  155.3090  135.1960 C   0  0  0  0  0  0  0  0  0  0  0  0
  146.3677  154.7528  136.1450 H   0  0  0  0  0  0  0  0  0  0  0  0
  147.7070  155.7060  134.6240 C   0  0  0  0  0  0  0  0  0  0  0  0
  147.6397  156.7326  134.2348 H   0  0  0  0  0  0  0  0  0  0  0  0
  148.4621  155.6439  135.4214 H   0  0  0  0  0  0  0  0  0  0  0  0
  148.1890  154.6110  133.3000 S   0  0  0  0  0  0  0  0  0  0  0  0
  147.0660  154.4880  132.3080 O   0  0  0  0  0  0  0  0  0  0  0  0
  149.4100  155.1540  132.6100 O   0  0  0  0  0  0  0  0  0  0  0  0
  148.5590  153.0050  133.9710 C   0  0  0  0  0  0  0  0  0  0  0  0
  148.5474  153.0552  135.0698 H   0  0  0  0  0  0  0  0  0  0  0  0
  147.8039  152.2819  133.6290 H   0  0  0  0  0  0  0  0  0  0  0  0
  149.5544  152.6852  133.6290 H   0  0  0  0  0  0  0  0  0  0  0  0
  1  2  1  0
  2  3  1  0
  3  4  2  0
  3  5  1  0
  5  6  1  0
  6  7  1  0
  7  8  2  0
  7  9  1  0
  9 10  1  0
  9 11  1  0
  6 12  2  0
 12 13  1  0
 12 14  1  0
 14 15  2  0
 15 16  1  0
 15 17  1  0
 17 18  1  0
 17 19  2  0
 19 20  1  0
 20 21  1  1
 20 22  1  0
 22 23  1  0
 22 24  1  0
 22 25  1  0
 20 26  1  0
 26 27  1  0
 26 28  1  0
 26 29  1  0
 19 30  1  0
 30 31  1  0
 30 32  2  0
  2 33  2  0
 33 34  1  0
 33 35  1  0
 35 36  1  0
 35 37  1  0
 35 38  1  0
 38 39  2  0
 38 40  2  0
 38 41  1  0
 41 42  1  0
 41 43  1  0
 41 44  1  0
 32  5  1  0
 32 14  1  0
M  END
>  <UniqueID>  (39) 
38

>  <SMILES>  (39) 
C[C@H](c1ccc2cc(C(N)=O)n(C(=O)/C=C\CS(C)(=O)=O)c2c1)C(F)(F)F

>  <Energy>  (39) 
73.80502887082218

>  <Genealogy>  (39) 
C[C@H](c1ccc2cc(C(N)=O)n(C(=O)C=CCS(C)(=O)=O)c2c1)C(F)(F)F (chirality)
C[C@H](c1ccc2cc(C(N)=O)n(C(=O)/C=C\CS(C)(=O)=O)c2c1)C(F)(F)F (cis-trans isomerization)
C[C@H](c1ccc2cc(C(N)=O)n(C(=O)/C=C\CS(C)(=O)=O)c2c1)C(F)(F)F (3D coordinates assigned)
C[C@H](c1ccc2cc(C(N)=O)n(C(=O)/C=C\CS(C)(=O)=O)c2c1)C(F)(F)F (optimized conformer: 73.80502887082218 kcal/mol)

>  <smiles>  (39) 
CC(c1ccc2cc(C(N)=O)n(C(=O)C=CCS(C)(=O)=O)c2c1)C(F)(F)F

>  <score_type>  (39) 
oracle

>  <origin>  (39) 
adg

>  <m_score__min__energy>  (39) 
-7.6600000000000001

>  <m_primary>  (39) 
energy

$$$$
39:0
     RDKit          3D

 60 61  0  0  0  0  0  0  0  0999 V2000
  139.1340  147.6220  130.2170 C   0  0  0  0  0  0  0  0  0  0  0  0
  140.1650  148.3560  130.8630 O   0  0  0  0  0  0  0  0  0  0  0  0
  139.9180  149.5350  131.5750 C   0  0  0  0  0  0  0  0  0  0  0  0
  138.7400  149.9720  131.6780 O   0  0  0  0  0  0  0  0  0  0  0  0
  141.0120  150.2440  132.1860 N   0  0  0  0  0  0  0  0  0  0  0  0
  142.3310  149.6080  132.2360 C   0  0  0  0  0  0  0  0  0  0  0  0
  140.8290  151.5800  132.7740 C   0  0  0  0  0  0  0  0  0  0  0  0
  142.1750  152.2230  133.1650 C   0  0  0  0  0  0  0  0  0  0  0  0
  142.3960  153.6350  132.5740 C   0  0  0  0  0  0  0  0  0  0  0  0
  142.0990  154.8030  133.5520 C   0  0  2  0  0  0  0  0  0  0  0  0
  140.5990  154.8780  133.8940 C   0  0  0  0  0  0  0  0  0  0  0  0
  139.9110  156.0320  133.2160 C   0  0  0  0  0  0  0  0  0  0  0  0
  139.1030  155.8070  132.2720 O   0  0  0  0  0  0  0  0  0  0  0  0
  140.0660  157.3710  133.7180 N   0  0  0  0  0  0  0  0  0  0  0  0
  140.0010  158.5320  133.0140 C   0  0  0  0  0  0  0  0  0  0  0  0
  139.5810  158.6500  131.6090 C   0  0  0  0  0  0  0  0  0  0  0  0
  138.3720  158.0310  131.1680 N   0  0  0  0  0  0  0  0  0  0  0  0
  140.2810  159.3200  130.8020 O   0  0  0  0  0  0  0  0  0  0  0  0
  140.3300  159.6200  133.8190 C   0  0  0  0  0  0  0  0  0  0  0  0
  140.5940  159.0810  135.0570 C   0  0  0  0  0  0  0  0  0  0  0  0
  140.9860  159.7050  136.2390 C   0  0  0  0  0  0  0  0  0  0  0  0
  141.2400  158.8920  137.3570 C   0  0  0  0  0  0  0  0  0  0  0  0
  141.1280  157.4830  137.2740 C   0  0  0  0  0  0  0  0  0  0  0  0
  141.4080  156.6460  138.4960 C   0  0  0  0  0  0  0  0  0  0  0  0
  141.7530  157.4320  139.5850 F   0  0  0  0  0  0  0  0  0  0  0  0
  142.4490  155.7780  138.2240 F   0  0  0  0  0  0  0  0  0  0  0  0
  140.2820  155.9110  138.8280 F   0  0  0  0  0  0  0  0  0  0  0  0
  140.7050  156.8900  136.0590 C   0  0  0  0  0  0  0  0  0  0  0  0
  140.4350  157.7210  134.9670 C   0  0  0  0  0  0  0  0  0  0  0  0
  142.5080  156.0430  132.9990 O   0  0  0  0  0  0  0  0  0  0  0  0
  143.7100  156.7920  133.9950 Si  0  0  0  0  0  3  0  0  0  0  0  0
  145.3810  156.0350  133.6600 C   0  0  0  0  0  0  0  0  0  0  0  0
  143.7610  158.6290  133.6580 C   0  0  0  0  0  0  0  0  0  0  0  0
  138.4839  147.1591  130.9740 H   0  0  0  0  0  0  0  0  0  0  0  0
  138.5391  148.3010  129.5884 H   0  0  0  0  0  0  0  0  0  0  0  0
  139.5809  146.8377  129.5884 H   0  0  0  0  0  0  0  0  0  0  0  0
  142.6292  149.4642  133.2850 H   0  0  0  0  0  0  0  0  0  0  0  0
  142.2869  148.6321  131.7303 H   0  0  0  0  0  0  0  0  0  0  0  0
  143.0671  150.2502  131.7303 H   0  0  0  0  0  0  0  0  0  0  0  0
  140.3257  152.2262  132.0398 H   0  0  0  0  0  0  0  0  0  0  0  0
  140.2239  151.4720  133.6863 H   0  0  0  0  0  0  0  0  0  0  0  0
  142.2167  152.2972  134.2617 H   0  0  0  0  0  0  0  0  0  0  0  0
  142.9657  151.5792  132.7522 H   0  0  0  0  0  0  0  0  0  0  0  0
  143.4464  153.7128  132.2568 H   0  0  0  0  0  0  0  0  0  0  0  0
  141.6832  153.7380  131.7426 H   0  0  0  0  0  0  0  0  0  0  0  0
  142.6686  154.6063  134.4722 H   0  0  0  0  0  0  0  0  0  0  0  0
  140.1169  153.9425  133.5741 H   0  0  0  0  0  0  0  0  0  0  0  0
  140.5106  155.0273  134.9802 H   0  0  0  0  0  0  0  0  0  0  0  0
  137.7840  157.4910  131.8380 H   0  0  0  0  0  0  0  0  0  0  0  0
  138.0740  158.0990  130.1730 H   0  0  0  0  0  0  0  0  0  0  0  0
  140.3701  160.6801  133.5281 H   0  0  0  0  0  0  0  0  0  0  0  0
  141.0932  160.7983  136.2956 H   0  0  0  0  0  0  0  0  0  0  0  0
  141.5301  159.3573  138.3106 H   0  0  0  0  0  0  0  0  0  0  0  0
  140.5913  155.7990  135.9762 H   0  0  0  0  0  0  0  0  0  0  0  0
  145.8793  155.8093  134.6144 H   0  0  0  0  0  0  0  0  0  0  0  0
  145.2541  155.1065  133.0840 H   0  0  0  0  0  0  0  0  0  0  0  0
  145.9953  156.7427  133.0840 H   0  0  0  0  0  0  0  0  0  0  0  0
  143.7762  159.1765  134.6120 H   0  0  0  0  0  0  0  0  0  0  0  0
  144.6662  158.8711  133.0818 H   0  0  0  0  0  0  0  0  0  0  0  0
  142.8706  158.9209  133.0818 H   0  0  0  0  0  0  0  0  0  0  0  0
  1  2  1  0
  2  3  1  0
  3  4  2  0
  3  5  1  0
  5  6  1  0
  5  7  1  0
  7  8  1  0
  8  9  1  0
  9 10  1  0
 10 11  1  0
 11 12  1  0
 12 13  2  0
 12 14  1  0
 14 15  1  0
 15 16  1  0
 16 17  1  0
 16 18  2  0
 15 19  2  0
 19 20  1  0
 20 21  2  0
 21 22  1  0
 22 23  2  0
 23 24  1  0
 24 25  1  0
 24 26  1  0
 24 27  1  0
 23 28  1  0
 28 29  2  0
 10 30  1  0
 30 31  1  0
 31 32  1  0
 31 33  1  0
 29 14  1  0
 29 20  1  0
  1 34  1  0
  1 35  1  0
  1 36  1  0
  6 37  1  0
  6 38  1  0
  6 39  1  0
  7 40  1  0
  7 41  1  0
  8 42  1  0
  8 43  1  0
  9 44  1  0
  9 45  1  0
 10 46  1  1
 11 47  1  0
 11 48  1  0
 17 49  1  0
 17 50  1  0
 19 51  1  0
 21 52  1  0
 22 53  1  0
 28 54  1  0
 32 55  1  0
 32 56  1  0
 32 57  1  0
 33 58  1  0
 33 59  1  0
 33 60  1  0
M  RAD  1  31   2
M  END
>  <UniqueID>  (40) 
39

>  <SMILES>  (40) 
COC(=O)N(C)CCC[C@H](CC(=O)n1c(C(N)=O)cc2ccc(C(F)(F)F)cc21)O[Si](C)C

>  <Energy>  (40) 
87.93897480799278

>  <Genealogy>  (40) 
COC(=O)N(C)CCC[C@H](CC(=O)n1c(C(N)=O)cc2ccc(C(F)(F)F)cc21)O[Si](C)C (chirality)
COC(=O)N(C)CCC[C@H](CC(=O)n1c(C(N)=O)cc2ccc(C(F)(F)F)cc21)O[Si](C)C (3D coordinates assigned)
COC(=O)N(C)CCC[C@H](CC(=O)n1c(C(N)=O)cc2ccc(C(F)(F)F)cc21)O[Si](C)C (optimized conformer: 87.93897480799278 kcal/mol)

>  <smiles>  (40) 
COC(=O)N(C)CCCC(CC(=O)n1c(C(N)=O)cc2ccc(C(F)(F)F)cc21)O[Si](C)C

>  <score_type>  (40) 
oracle

>  <origin>  (40) 
adg

>  <m_score__min__energy>  (40) 
-7.4900000000000002

>  <m_primary>  (40) 
energy

$$$$
40:0
     RDKit          3D

 36 38  0  0  0  0  0  0  0  0999 V2000
  144.1370  162.2650  133.7490 C   0  0  0  0  0  0  0  0  0  0  0  0
  143.3250  161.0440  133.6780 N   0  0  0  0  0  0  0  0  0  0  0  0
  141.8620  161.1600  133.7280 C   0  0  0  0  0  0  0  0  0  0  0  0
  143.9590  159.7440  133.5550 C   0  0  0  0  0  0  0  0  0  0  0  0
  143.1760  158.5550  133.4910 C   0  0  0  0  0  0  0  0  0  0  0  0
  143.7820  157.2930  133.3710 C   0  0  0  0  0  0  0  0  0  0  0  0
  145.1680  157.2380  133.3080 C   0  0  0  0  0  0  0  0  0  0  0  0
  146.0100  156.1530  133.2080 C   0  0  0  0  0  0  0  0  0  0  0  0
  147.2990  156.6860  133.1970 C   0  0  0  0  0  0  0  0  0  0  0  0
  148.5250  155.8730  133.0570 C   0  0  0  0  0  0  0  0  0  0  0  0
  149.6000  156.3410  132.2460 N   0  0  0  0  0  0  0  0  0  0  0  0
  148.6420  154.7740  133.6610 O   0  0  0  0  0  0  0  0  0  0  0  0
  147.2510  158.0440  133.2810 N   0  0  0  0  0  0  0  0  0  0  0  0
  148.3580  158.9560  133.3550 C   0  0  0  0  0  0  0  0  0  0  0  0
  148.8620  159.2280  134.4780 O   0  0  0  0  0  0  0  0  0  0  0  0
  148.9040  159.5850  132.1360 C   0  0  0  0  0  0  0  0  0  0  0  0
  148.4660  160.8190  131.6570 C   0  0  0  0  0  0  0  0  0  0  0  0
  149.3330  161.1610  130.2570 S   0  0  0  0  0  0  0  0  0  0  0  0
  150.2340  159.7450  130.3130 C   0  0  0  0  0  0  0  0  0  0  0  0
  149.8850  159.0060  131.3870 N   0  0  0  0  0  0  0  0  0  0  0  0
  145.9420  158.3650  133.3550 C   0  0  0  0  0  0  0  0  0  0  0  0
  145.3710  159.6330  133.4930 C   0  0  0  0  0  0  0  0  0  0  0  0
  144.3120  162.5282  134.8026 H   0  0  0  0  0  0  0  0  0  0  0  0
  145.1016  162.0935  133.2488 H   0  0  0  0  0  0  0  0  0  0  0  0
  143.6058  163.0882  133.2488 H   0  0  0  0  0  0  0  0  0  0  0  0
  141.5319  161.1862  134.7770 H   0  0  0  0  0  0  0  0  0  0  0  0
  141.5501  162.0857  133.2222 H   0  0  0  0  0  0  0  0  0  0  0  0
  141.4081  160.2950  133.2222 H   0  0  0  0  0  0  0  0  0  0  0  0
  142.0792  158.6264  133.5363 H   0  0  0  0  0  0  0  0  0  0  0  0
  143.1763  156.3757  133.3282 H   0  0  0  0  0  0  0  0  0  0  0  0
  145.7265  155.0918  133.1493 H   0  0  0  0  0  0  0  0  0  0  0  0
  149.4340  157.0270  131.4770 H   0  0  0  0  0  0  0  0  0  0  0  0
  147.6925  161.4546  132.1128 H   0  0  0  0  0  0  0  0  0  0  0  0
  151.0008  159.4599  129.5777 H   0  0  0  0  0  0  0  0  0  0  0  0
  150.3360  158.0920  131.6130 H   0  0  0  0  0  0  0  0  0  0  0  0
  146.0060  160.5292  133.5525 H   0  0  0  0  0  0  0  0  0  0  0  0
  1  2  1  0
  2  3  1  0
  2  4  1  0
  4  5  2  0
  5  6  1  0
  6  7  2  0
  7  8  1  0
  8  9  2  0
  9 10  1  0
 10 11  1  0
 10 12  2  0
  9 13  1  0
 13 14  1  0
 14 15  2  0
 14 16  1  0
 16 17  2  0
 17 18  1  0
 18 19  1  0
 19 20  2  0
 13 21  1  0
 21 22  2  0
 22  4  1  0
 21  7  1  0
 20 16  1  0
  1 23  1  0
  1 24  1  0
  1 25  1  0
  3 26  1  0
  3 27  1  0
  3 28  1  0
  5 29  1  0
  6 30  1  0
  8 31  1  0
 11 32  1  0
 17 33  1  0
 19 34  1  0
 20 35  1  0
 22 36  1  0
M  CHG  2  11  -1  20   1
M  END
>  <UniqueID>  (41) 
40

>  <SMILES>  (41) 
CN(C)c1ccc2cc(C([NH-])=O)n(C(=O)c3csc[nH+]3)c2c1

>  <Energy>  (41) 
107.29521251129134

>  <Genealogy>  (41) 
CN(C)c1ccc2cc(C([NH-])=O)n(C(=O)c3csc[nH+]3)c2c1 (protonated)
CN(C)c1ccc2cc(C([NH-])=O)n(C(=O)c3csc[nH+]3)c2c1 (3D coordinates assigned)
CN(C)c1ccc2cc(C([NH-])=O)n(C(=O)c3csc[nH+]3)c2c1 (optimized conformer: 107.29521251129134 kcal/mol)

>  <smiles>  (41) 
CN(C)c1ccc2cc(C(N)=O)n(C(=O)c3cscn3)c2c1

>  <score_type>  (41) 
oracle

>  <origin>  (41) 
adg

>  <m_score__min__energy>  (41) 
-6.6500000000000004

>  <m_primary>  (41) 
energy

$$$$
41:0
     RDKit          3D

 28 29  0  0  0  0  0  0  0  0999 V2000
  148.7050  157.5190  131.8700 N   0  0  0  0  0  0  0  0  0  0  0  0
  148.3250  158.5480  132.7840 C   0  0  0  0  0  0  0  0  0  0  0  0
  149.2190  159.2030  133.3830 O   0  0  0  0  0  0  0  0  0  0  0  0
  146.9050  158.8170  133.0880 C   0  0  0  0  0  0  0  0  0  0  0  0
  146.3600  160.0970  133.1310 C   0  0  0  0  0  0  0  0  0  0  0  0
  145.0540  159.9220  133.5270 C   0  0  0  0  0  0  0  0  0  0  0  0
  144.0460  160.8610  133.7310 C   0  0  0  0  0  0  0  0  0  0  0  0
  142.7780  160.3910  134.1140 C   0  0  0  0  0  0  0  0  0  0  0  0
  142.5380  159.0040  134.2700 C   0  0  0  0  0  0  0  0  0  0  0  0
  141.1810  158.5140  134.6990 C   0  0  0  0  0  0  0  0  0  0  0  0
  140.9340  158.8070  136.1780 C   0  0  0  0  0  0  0  0  0  0  0  0
  139.8710  158.0480  136.6290 F   0  0  0  0  0  0  0  0  0  0  0  0
  140.6370  160.1470  136.3570 F   0  0  0  0  0  0  0  0  0  0  0  0
  143.5880  158.0810  134.0620 C   0  0  0  0  0  0  0  0  0  0  0  0
  144.8440  158.5770  133.6990 C   0  0  0  0  0  0  0  0  0  0  0  0
  145.9710  157.8840  133.4280 N   0  0  0  0  0  0  0  0  0  0  0  0
  146.0980  156.4540  133.3880 C   0  0  0  0  0  0  0  0  0  0  0  0
  146.4680  155.8820  132.3300 O   0  0  0  0  0  0  0  0  0  0  0  0
  145.7880  155.4590  134.8620 S   0  0  0  0  0  0  0  0  0  0  0  0
  149.7120  157.3690  131.6380 H   0  0  0  0  0  0  0  0  0  0  0  0
  148.0000  156.8560  131.4810 H   0  0  0  0  0  0  0  0  0  0  0  0
  146.8654  161.0458  132.8981 H   0  0  0  0  0  0  0  0  0  0  0  0
  144.2361  161.9361  133.5967 H   0  0  0  0  0  0  0  0  0  0  0  0
  141.9635  161.1080  134.2945 H   0  0  0  0  0  0  0  0  0  0  0  0
  140.4100  159.0194  134.0988 H   0  0  0  0  0  0  0  0  0  0  0  0
  141.1375  157.4256  134.5459 H   0  0  0  0  0  0  0  0  0  0  0  0
  141.8430  158.5560  136.7444 H   0  0  0  0  0  0  0  0  0  0  0  0
  143.4214  157.0004  134.1825 H   0  0  0  0  0  0  0  0  0  0  0  0
  1  2  1  0
  2  3  2  0
  2  4  1  0
  4  5  2  0
  5  6  1  0
  6  7  2  0
  7  8  1  0
  8  9  2  0
  9 10  1  0
 10 11  1  0
 11 12  1  0
 11 13  1  0
  9 14  1  0
 14 15  2  0
 15 16  1  0
 16 17  1  0
 17 18  2  0
 17 19  1  0
 16  4  1  0
 15  6  1  0
  1 20  1  0
  1 21  1  0
  5 22  1  0
  7 23  1  0
  8 24  1  0
 10 25  1  0
 10 26  1  0
 11 27  1  0
 14 28  1  0
M  CHG  1  19  -1
M  END
>  <UniqueID>  (42) 
41

>  <SMILES>  (42) 
NC(=O)c1cc2ccc(CC(F)F)cc2n1C(=O)[S-]

>  <Energy>  (42) 
66.15062804098827

>  <Genealogy>  (42) 
NC(=O)c1cc2ccc(CC(F)F)cc2n1C(=O)[S-] (protonated)
NC(=O)c1cc2ccc(CC(F)F)cc2n1C(=O)[S-] (3D coordinates assigned)
NC(=O)c1cc2ccc(CC(F)F)cc2n1C(=O)[S-] (optimized conformer: 66.15062804098827 kcal/mol)

>  <smiles>  (42) 
NC(=O)c1cc2ccc(CC(F)F)cc2n1C(=O)S

>  <score_type>  (42) 
oracle

>  <origin>  (42) 
adg

>  <m_score__min__energy>  (42) 
-5.54

>  <m_primary>  (42) 
energy

$$$$
42:0
     RDKit          3D

 45 47  0  0  0  0  0  0  0  0999 V2000
  138.3570  157.5050  133.6840 C   0  0  0  0  0  0  0  0  0  0  0  0
  139.6660  157.9690  134.2320 C   0  0  0  0  0  0  0  0  0  0  0  0
  140.7810  158.3000  133.4860 C   0  0  0  0  0  0  0  0  0  0  0  0
  141.6950  158.7460  134.4210 C   0  0  0  0  0  0  0  0  0  0  0  0
  143.0620  159.2180  134.1120 C   0  0  0  0  0  0  0  0  0  0  0  0
  143.3560  160.6050  134.0480 C   0  0  0  0  0  0  0  0  0  0  0  0
  144.6510  161.0510  133.7350 C   0  0  0  0  0  0  0  0  0  0  0  0
  145.6290  160.0930  133.4870 C   0  0  0  0  0  0  0  0  0  0  0  0
  146.9510  160.2440  133.1330 C   0  0  0  0  0  0  0  0  0  0  0  0
  147.4470  158.9470  132.9810 C   0  0  0  0  0  0  0  0  0  0  0  0
  148.8480  158.6140  132.6330 C   0  0  0  0  0  0  0  0  0  0  0  0
  149.1590  157.4600  131.8470 N   0  0  0  0  0  0  0  0  0  0  0  0
  149.7880  159.3600  133.0210 O   0  0  0  0  0  0  0  0  0  0  0  0
  146.4680  158.0370  133.2440 N   0  0  0  0  0  0  0  0  0  0  0  0
  146.5550  156.6080  133.1330 C   0  0  0  0  0  0  0  0  0  0  0  0
  146.9400  156.1040  132.0450 O   0  0  0  0  0  0  0  0  0  0  0  0
  146.1770  155.7460  134.2820 C   0  0  0  0  0  0  0  0  0  0  0  0
  147.0240  155.5780  135.2030 O   0  0  0  0  0  0  0  0  0  0  0  0
  144.8840  155.1100  134.3940 N   0  0  0  0  0  0  0  0  0  0  0  0
  144.4230  154.6830  135.7190 C   0  0  0  0  0  0  0  0  0  0  0  0
  144.0570  154.8240  133.2170 C   0  0  0  0  0  0  0  0  0  0  0  0
  145.3630  158.7510  133.5430 C   0  0  0  0  0  0  0  0  0  0  0  0
  144.0790  158.2770  133.8340 C   0  0  0  0  0  0  0  0  0  0  0  0
  141.1320  158.6620  135.6490 N   0  0  0  0  0  0  0  0  0  0  0  0
  141.7370  158.9940  136.9350 C   0  0  0  0  0  0  0  0  0  0  0  0
  139.8920  158.2080  135.5370 N   0  0  0  0  0  0  0  0  0  0  0  0
  137.6767  157.2639  134.5141 H   0  0  0  0  0  0  0  0  0  0  0  0
  137.9148  158.3012  133.0671 H   0  0  0  0  0  0  0  0  0  0  0  0
  138.5150  156.6081  133.0671 H   0  0  0  0  0  0  0  0  0  0  0  0
  140.9112  158.2254  132.3963 H   0  0  0  0  0  0  0  0  0  0  0  0
  142.5610  161.3391  134.2457 H   0  0  0  0  0  0  0  0  0  0  0  0
  144.8846  162.1249  133.6875 H   0  0  0  0  0  0  0  0  0  0  0  0
  147.5007  161.1872  132.9983 H   0  0  0  0  0  0  0  0  0  0  0  0
  148.4260  156.7700  131.5720 H   0  0  0  0  0  0  0  0  0  0  0  0
  150.1500  157.2580  131.5850 H   0  0  0  0  0  0  0  0  0  0  0  0
  144.9952  155.2130  136.4947 H   0  0  0  0  0  0  0  0  0  0  0  0
  143.3537  154.9168  135.8281 H   0  0  0  0  0  0  0  0  0  0  0  0
  144.5743  153.5989  135.8281 H   0  0  0  0  0  0  0  0  0  0  0  0
  143.0637  154.4805  133.5415 H   0  0  0  0  0  0  0  0  0  0  0  0
  143.9500  155.7373  132.6134 H   0  0  0  0  0  0  0  0  0  0  0  0
  144.5371  154.0397  132.6134 H   0  0  0  0  0  0  0  0  0  0  0  0
  143.8664  157.1978  133.8461 H   0  0  0  0  0  0  0  0  0  0  0  0
  141.0879  158.6378  137.7485 H   0  0  0  0  0  0  0  0  0  0  0  0
  142.7216  158.5098  137.0129 H   0  0  0  0  0  0  0  0  0  0  0  0
  141.8575  160.0846  137.0129 H   0  0  0  0  0  0  0  0  0  0  0  0
  1  2  1  0
  2  3  1  0
  3  4  2  0
  4  5  1  0
  5  6  2  0
  6  7  1  0
  7  8  2  0
  8  9  1  0
  9 10  2  0
 10 11  1  0
 11 12  1  0
 11 13  2  0
 10 14  1  0
 14 15  1  0
 15 16  2  0
 15 17  1  0
 17 18  2  0
 17 19  1  0
 19 20  1  0
 19 21  1  0
 14 22  1  0
 22 23  2  0
  4 24  1  0
 24 25  1  0
 24 26  1  0
 26  2  2  0
 23  5  1  0
 22  8  1  0
  1 27  1  0
  1 28  1  0
  1 29  1  0
  3 30  1  0
  6 31  1  0
  7 32  1  0
  9 33  1  0
 12 34  1  0
 12 35  1  0
 20 36  1  0
 20 37  1  0
 20 38  1  0
 21 39  1  0
 21 40  1  0
 21 41  1  0
 23 42  1  0
 25 43  1  0
 25 44  1  0
 25 45  1  0
M  END
>  <UniqueID>  (43) 
42

>  <SMILES>  (43) 
Cc1cc(-c2ccc3cc(C(N)=O)n(C(=O)C(=O)N(C)C)c3c2)n(C)n1

>  <Energy>  (43) 
119.55586590649084

>  <Genealogy>  (43) 
Cc1cc(-c2ccc3cc(C(N)=O)n(C(=O)C(=O)N(C)C)c3c2)n(C)n1 (3D coordinates assigned)
Cc1cc(-c2ccc3cc(C(N)=O)n(C(=O)C(=O)N(C)C)c3c2)n(C)n1 (optimized conformer: 119.55586590649084 kcal/mol)

>  <smiles>  (43) 
Cc1cc(-c2ccc3cc(C(N)=O)n(C(=O)C(=O)N(C)C)c3c2)n(C)n1

>  <score_type>  (43) 
oracle

>  <origin>  (43) 
adg

>  <m_score__min__energy>  (43) 
-8.1699999999999999

>  <m_primary>  (43) 
energy

$$$$
43:0
     RDKit          3D

 38 40  0  0  0  0  0  0  0  0999 V2000
  139.5210  157.7530  135.1730 N   0  0  0  0  0  0  0  0  0  0  0  0
  139.9740  158.5680  134.0940 C   0  0  0  0  0  0  0  0  0  0  0  0
  139.1450  158.9780  133.2400 O   0  0  0  0  0  0  0  0  0  0  0  0
  141.3980  158.9550  134.0140 C   0  0  0  0  0  0  0  0  0  0  0  0
  141.8520  160.2550  134.2250 C   0  0  0  0  0  0  0  0  0  0  0  0
  143.2040  160.2160  133.9740 C   0  0  0  0  0  0  0  0  0  0  0  0
  144.1550  161.2290  134.0350 C   0  0  0  0  0  0  0  0  0  0  0  0
  145.4890  160.8990  133.7440 C   0  0  0  0  0  0  0  0  0  0  0  0
  145.8510  159.5690  133.4110 C   0  0  0  0  0  0  0  0  0  0  0  0
  147.2200  159.2380  133.1140 N   0  0  0  0  0  0  0  0  0  0  0  0
  147.8170  158.0000  133.6340 C   0  0  0  0  0  0  0  0  0  0  0  0
  148.7920  157.3760  132.6070 C   0  0  0  0  0  0  0  0  0  0  0  0
  149.0650  158.2120  131.4940 O   0  0  0  0  0  0  0  0  0  0  0  0
  149.3570  159.5230  131.9290 C   0  0  0  0  0  0  0  0  0  0  0  0
  148.0680  160.1990  132.4010 C   0  0  0  0  0  0  0  0  0  0  0  0
  144.8520  158.5690  133.3520 C   0  0  0  0  0  0  0  0  0  0  0  0
  143.5290  158.9300  133.6300 C   0  0  0  0  0  0  0  0  0  0  0  0
  142.4320  158.1420  133.6520 N   0  0  0  0  0  0  0  0  0  0  0  0
  142.3980  156.7270  133.4040 C   0  0  0  0  0  0  0  0  0  0  0  0
  143.2270  156.2050  132.6110 O   0  0  0  0  0  0  0  0  0  0  0  0
  141.4270  155.9370  134.0290 O   0  0  0  0  0  0  0  0  0  0  0  0
  140.2910  155.4290  133.3400 C   0  0  0  0  0  0  0  0  0  0  0  0
  140.3470  154.0490  133.3270 F   0  0  0  0  0  0  0  0  0  0  0  0
  139.8790  156.7800  135.2990 H   0  0  0  0  0  0  0  0  0  0  0  0
  141.2555  161.1281  134.5282 H   0  0  0  0  0  0  0  0  0  0  0  0
  143.8711  162.2574  134.3030 H   0  0  0  0  0  0  0  0  0  0  0  0
  146.2617  161.6813  133.7748 H   0  0  0  0  0  0  0  0  0  0  0  0
  148.3671  158.2276  134.5590 H   0  0  0  0  0  0  0  0  0  0  0  0
  147.0096  157.2793  133.8310 H   0  0  0  0  0  0  0  0  0  0  0  0
  149.7414  157.1585  133.1182 H   0  0  0  0  0  0  0  0  0  0  0  0
  148.3069  156.4699  132.2151 H   0  0  0  0  0  0  0  0  0  0  0  0
  150.0762  159.4825  132.7603 H   0  0  0  0  0  0  0  0  0  0  0  0
  149.7915  160.0983  131.0982 H   0  0  0  0  0  0  0  0  0  0  0  0
  148.3204  161.0304  133.0756 H   0  0  0  0  0  0  0  0  0  0  0  0
  147.5210  160.5771  131.5247 H   0  0  0  0  0  0  0  0  0  0  0  0
  145.1095  157.5313  133.0935 H   0  0  0  0  0  0  0  0  0  0  0  0
  139.3738  155.7551  133.8523 H   0  0  0  0  0  0  0  0  0  0  0  0
  140.2851  155.8082  132.3075 H   0  0  0  0  0  0  0  0  0  0  0  0
  1  2  1  0
  2  3  2  0
  2  4  1  0
  4  5  2  0
  5  6  1  0
  6  7  2  0
  7  8  1  0
  8  9  2  0
  9 10  1  0
 10 11  1  0
 11 12  1  0
 12 13  1  0
 13 14  1  0
 14 15  1  0
  9 16  1  0
 16 17  2  0
 17 18  1  0
 18 19  1  0
 19 20  2  0
 19 21  1  0
 21 22  1  0
 22 23  1  0
 18  4  1  0
 17  6  1  0
 15 10  1  0
  1 24  1  0
  5 25  1  0
  7 26  1  0
  8 27  1  0
 11 28  1  0
 11 29  1  0
 12 30  1  0
 12 31  1  0
 14 32  1  0
 14 33  1  0
 15 34  1  0
 15 35  1  0
 16 36  1  0
 22 37  1  0
 22 38  1  0
M  CHG  1   1  -1
M  END
>  <UniqueID>  (44) 
43

>  <SMILES>  (44) 
[NH-]C(=O)c1cc2ccc(N3CCOCC3)cc2n1C(=O)OCF

>  <Energy>  (44) 
86.75441885075787

>  <Genealogy>  (44) 
[NH-]C(=O)c1cc2ccc(N3CCOCC3)cc2n1C(=O)OCF (protonated)
[NH-]C(=O)c1cc2ccc(N3CCOCC3)cc2n1C(=O)OCF (3D coordinates assigned)
[NH-]C(=O)c1cc2ccc(N3CCOCC3)cc2n1C(=O)OCF (nonaromatic ring conformer: 86.75441885075787 kcal/mol)

>  <smiles>  (44) 
NC(=O)c1cc2ccc(N3CCOCC3)cc2n1C(=O)OCF

>  <score_type>  (44) 
oracle

>  <origin>  (44) 
adg

>  <m_score__min__energy>  (44) 
-6.0099999999999998

>  <m_primary>  (44) 
energy

$$$$
44:0
     RDKit          3D

 34 35  0  0  0  0  0  0  0  0999 V2000
  149.5540  152.4380  132.2480 C   0  0  0  0  0  0  0  0  0  0  0  0
  149.5200  153.7320  132.8360 O   0  0  0  0  0  0  0  0  0  0  0  0
  148.3590  154.2750  133.3940 C   0  0  0  0  0  0  0  0  0  0  0  0
  148.1310  154.1750  134.6310 O   0  0  0  0  0  0  0  0  0  0  0  0
  147.3570  154.9360  132.5050 C   0  0  0  0  0  0  0  0  0  0  0  0
  147.3730  156.4220  132.7300 C   0  0  0  0  0  0  0  0  0  0  0  0
  148.5950  157.1380  132.6700 C   0  0  0  0  0  0  0  0  0  0  0  0
  148.6240  158.5230  132.9030 C   0  0  0  0  0  0  0  0  0  0  0  0
  147.4230  159.1590  133.2080 C   0  0  0  0  0  0  0  0  0  0  0  0
  147.1640  160.4870  133.4610 C   0  0  0  0  0  0  0  0  0  0  0  0
  145.7940  160.5550  133.7070 C   0  0  0  0  0  0  0  0  0  0  0  0
  145.1020  161.7980  134.1100 C   0  0  0  0  0  0  0  0  0  0  0  0
  143.7450  162.0100  133.7300 N   0  0  0  0  0  0  0  0  0  0  0  0
  145.7080  162.6920  134.7580 O   0  0  0  0  0  0  0  0  0  0  0  0
  145.2270  159.3190  133.6040 N   0  0  0  0  0  0  0  0  0  0  0  0
  143.8390  158.9690  133.7320 C   0  0  0  0  0  0  0  0  0  0  0  0
  143.2810  158.2700  132.8440 O   0  0  0  0  0  0  0  0  0  0  0  0
  143.1210  159.3860  134.8570 O   0  0  0  0  0  0  0  0  0  0  0  0
  141.7290  159.6750  134.8150 C   0  0  0  0  0  0  0  0  0  0  0  0
  146.2380  158.4760  133.3000 C   0  0  0  0  0  0  0  0  0  0  0  0
  146.1770  157.0990  133.0530 C   0  0  0  0  0  0  0  0  0  0  0  0
  149.5740  151.6755  133.0406 H   0  0  0  0  0  0  0  0  0  0  0  0
  148.6593  152.2951  131.6242 H   0  0  0  0  0  0  0  0  0  0  0  0
  150.4550  152.3423  131.6242 H   0  0  0  0  0  0  0  0  0  0  0  0
  147.6055  154.7237  131.4547 H   0  0  0  0  0  0  0  0  0  0  0  0
  146.3549  154.5460  132.7369 H   0  0  0  0  0  0  0  0  0  0  0  0
  149.5287  156.6044  132.4390 H   0  0  0  0  0  0  0  0  0  0  0  0
  149.5662  159.0878  132.8463 H   0  0  0  0  0  0  0  0  0  0  0  0
  147.8850  161.3178  133.4676 H   0  0  0  0  0  0  0  0  0  0  0  0
  143.0650  161.2180  133.7040 H   0  0  0  0  0  0  0  0  0  0  0  0
  141.3402  159.7557  135.8408 H   0  0  0  0  0  0  0  0  0  0  0  0
  141.5677  160.6258  134.2859 H   0  0  0  0  0  0  0  0  0  0  0  0
  141.2026  158.8670  134.2859 H   0  0  0  0  0  0  0  0  0  0  0  0
  145.2208  156.5582  133.1092 H   0  0  0  0  0  0  0  0  0  0  0  0
  1  2  1  0
  2  3  1  0
  3  4  2  0
  3  5  1  0
  5  6  1  0
  6  7  2  0
  7  8  1  0
  8  9  2  0
  9 10  1  0
 10 11  2  0
 11 12  1  0
 12 13  1  0
 12 14  2  0
 11 15  1  0
 15 16  1  0
 16 17  2  0
 16 18  1  0
 18 19  1  0
 15 20  1  0
 20 21  2  0
 21  6  1  0
 20  9  1  0
  1 22  1  0
  1 23  1  0
  1 24  1  0
  5 25  1  0
  5 26  1  0
  7 27  1  0
  8 28  1  0
 10 29  1  0
 13 30  1  0
 19 31  1  0
 19 32  1  0
 19 33  1  0
 21 34  1  0
M  CHG  1  13  -1
M  END
>  <UniqueID>  (45) 
44

>  <SMILES>  (45) 
COC(=O)Cc1ccc2cc(C([NH-])=O)n(C(=O)OC)c2c1

>  <Energy>  (45) 
66.60913632350177

>  <Genealogy>  (45) 
COC(=O)Cc1ccc2cc(C([NH-])=O)n(C(=O)OC)c2c1 (protonated)
COC(=O)Cc1ccc2cc(C([NH-])=O)n(C(=O)OC)c2c1 (3D coordinates assigned)
COC(=O)Cc1ccc2cc(C([NH-])=O)n(C(=O)OC)c2c1 (optimized conformer: 66.60913632350177 kcal/mol)

>  <smiles>  (45) 
COC(=O)Cc1ccc2cc(C(N)=O)n(C(=O)OC)c2c1

>  <score_type>  (45) 
oracle

>  <origin>  (45) 
adg

>  <m_score__min__energy>  (45) 
-5.9199999999999999

>  <m_primary>  (45) 
energy

$$$$
45:0
     RDKit          3D

 46 47  0  0  0  0  0  0  0  0999 V2000
  143.0680  160.5080  133.3790 N   0  0  0  0  0  0  0  0  0  0  0  0
  144.3880  160.4910  133.9160 C   0  0  0  0  0  0  0  0  0  0  0  0
  144.7340  161.3880  134.7300 O   0  0  0  0  0  0  0  0  0  0  0  0
  145.3290  159.4030  133.5830 C   0  0  0  0  0  0  0  0  0  0  0  0
  146.6650  159.6200  133.2520 C   0  0  0  0  0  0  0  0  0  0  0  0
  147.2120  158.3670  133.0970 C   0  0  0  0  0  0  0  0  0  0  0  0
  148.5050  157.9920  132.7460 C   0  0  0  0  0  0  0  0  0  0  0  0
  148.7820  156.6220  132.6170 C   0  0  0  0  0  0  0  0  0  0  0  0
  147.7690  155.6530  132.8410 C   0  0  0  0  0  0  0  0  0  0  0  0
  148.0530  154.2500  132.6620 N   0  0  0  0  0  0  0  0  0  0  0  0
  149.4780  154.0610  132.3600 C   0  0  0  0  0  0  0  0  0  0  0  0
  149.9110  152.6140  132.6110 C   0  0  0  0  0  0  0  0  0  0  0  0
  148.8090  151.8690  133.0850 O   0  0  0  0  0  0  0  0  0  0  0  0
  148.3070  151.0570  132.0450 C   0  0  0  0  0  0  0  0  0  0  0  0
  146.7940  151.2140  131.9670 C   0  0  0  0  0  0  0  0  0  0  0  0
  146.3800  152.2530  132.8110 O   0  0  0  0  0  0  0  0  0  0  0  0
  146.4650  156.0750  133.1880 C   0  0  0  0  0  0  0  0  0  0  0  0
  146.2220  157.4460  133.3270 C   0  0  0  0  0  0  0  0  0  0  0  0
  145.0580  158.0670  133.6230 N   0  0  0  0  0  0  0  0  0  0  0  0
  143.7880  157.4300  133.8270 C   0  0  0  0  0  0  0  0  0  0  0  0
  143.6580  156.5580  134.7290 O   0  0  0  0  0  0  0  0  0  0  0  0
  142.6900  157.8060  133.0420 O   0  0  0  0  0  0  0  0  0  0  0  0
  141.3350  157.5810  133.4230 C   0  0  2  0  0  0  0  0  0  0  0  0
  140.8480  156.5000  132.7110 F   0  0  0  0  0  0  0  0  0  0  0  0
  140.4870  158.8130  133.1110 C   0  0  0  0  0  0  0  0  0  0  0  0
  140.8720  159.3530  131.8760 O   0  0  0  0  0  0  0  0  0  0  0  0
  142.8110  159.9060  132.5670 H   0  0  0  0  0  0  0  0  0  0  0  0
  147.1746  160.5882  133.1386 H   0  0  0  0  0  0  0  0  0  0  0  0
  149.2869  158.7466  132.5747 H   0  0  0  0  0  0  0  0  0  0  0  0
  149.7951  156.2956  132.3393 H   0  0  0  0  0  0  0  0  0  0  0  0
  147.4710  153.8750  131.8770 H   0  0  0  0  0  0  0  0  0  0  0  0
  147.7980  153.7260  133.5320 H   0  0  0  0  0  0  0  0  0  0  0  0
  149.6570  154.3108  131.3038 H   0  0  0  0  0  0  0  0  0  0  0  0
  150.0635  154.7187  133.0192 H   0  0  0  0  0  0  0  0  0  0  0  0
  150.2758  152.1722  131.6720 H   0  0  0  0  0  0  0  0  0  0  0  0
  150.7155  152.5966  133.3609 H   0  0  0  0  0  0  0  0  0  0  0  0
  148.7577  151.3638  131.0896 H   0  0  0  0  0  0  0  0  0  0  0  0
  148.5577  150.0050  132.2462 H   0  0  0  0  0  0  0  0  0  0  0  0
  146.5040  151.4470  130.9318 H   0  0  0  0  0  0  0  0  0  0  0  0
  146.3149  150.2760  132.2842 H   0  0  0  0  0  0  0  0  0  0  0  0
  146.7410  152.0380  133.7100 H   0  0  0  0  0  0  0  0  0  0  0  0
  145.6598  155.3422  133.3451 H   0  0  0  0  0  0  0  0  0  0  0  0
  141.2874  157.3810  134.5036 H   0  0  0  0  0  0  0  0  0  0  0  0
  139.4261  158.5253  133.0692 H   0  0  0  0  0  0  0  0  0  0  0  0
  140.6356  159.5658  133.8992 H   0  0  0  0  0  0  0  0  0  0  0  0
  141.8600  159.4380  131.9090 H   0  0  0  0  0  0  0  0  0  0  0  0
  1  2  1  0
  2  3  2  0
  2  4  1  0
  4  5  2  0
  5  6  1  0
  6  7  2  0
  7  8  1  0
  8  9  2  0
  9 10  1  0
 10 11  1  0
 11 12  1  0
 12 13  1  0
 13 14  1  0
 14 15  1  0
 15 16  1  0
  9 17  1  0
 17 18  2  0
 18 19  1  0
 19 20  1  0
 20 21  2  0
 20 22  1  0
 22 23  1  0
 23 24  1  0
 23 25  1  0
 25 26  1  0
 19  4  1  0
 18  6  1  0
  1 27  1  0
  5 28  1  0
  7 29  1  0
  8 30  1  0
 10 31  1  0
 10 32  1  0
 11 33  1  0
 11 34  1  0
 12 35  1  0
 12 36  1  0
 14 37  1  0
 14 38  1  0
 15 39  1  0
 15 40  1  0
 16 41  1  0
 17 42  1  0
 23 43  1  1
 25 44  1  0
 25 45  1  0
 26 46  1  0
M  CHG  2   1  -1  10   1
M  END
>  <UniqueID>  (46) 
45

>  <SMILES>  (46) 
[NH-]C(=O)c1cc2ccc([NH2+]CCOCCO)cc2n1C(=O)O[C@H](F)CO

>  <Energy>  (46) 
77.15284442358683

>  <Genealogy>  (46) 
[NH-]C(=O)c1cc2ccc([NH2+]CCOCCO)cc2n1C(=O)OC(F)CO (protonated)
[NH-]C(=O)c1cc2ccc([NH2+]CCOCCO)cc2n1C(=O)O[C@H](F)CO (chirality)
[NH-]C(=O)c1cc2ccc([NH2+]CCOCCO)cc2n1C(=O)O[C@H](F)CO (3D coordinates assigned)
[NH-]C(=O)c1cc2ccc([NH2+]CCOCCO)cc2n1C(=O)O[C@H](F)CO (optimized conformer: 77.15284442358683 kcal/mol)

>  <smiles>  (46) 
NC(=O)c1cc2ccc(NCCOCCO)cc2n1C(=O)OC(F)CO

>  <score_type>  (46) 
oracle

>  <origin>  (46) 
adg

>  <m_score__min__energy>  (46) 
-5.0300000000000002

>  <m_primary>  (46) 
energy

$$$$
46:0
     RDKit          3D

 37 39  0  0  0  0  0  0  0  0999 V2000
  142.1800  160.6670  133.7360 N   0  0  0  0  0  0  0  0  0  0  0  0
  143.5370  161.1090  133.7060 C   0  0  0  0  0  0  0  0  0  0  0  0
  143.7810  162.3440  133.7350 O   0  0  0  0  0  0  0  0  0  0  0  0
  144.6500  160.1360  133.6740 C   0  0  0  0  0  0  0  0  0  0  0  0
  145.9980  160.4900  133.6750 C   0  0  0  0  0  0  0  0  0  0  0  0
  146.6870  159.3060  133.5330 C   0  0  0  0  0  0  0  0  0  0  0  0
  148.0560  159.0660  133.4870 C   0  0  0  0  0  0  0  0  0  0  0  0
  148.4880  157.7350  133.3600 C   0  0  0  0  0  0  0  0  0  0  0  0
  147.5500  156.6730  133.2680 C   0  0  0  0  0  0  0  0  0  0  0  0
  148.0270  155.2440  133.1920 C   0  0  0  0  0  0  0  0  0  0  0  0
  149.2820  155.1780  132.6130 F   0  0  0  0  0  0  0  0  0  0  0  0
  148.1050  154.6890  134.4580 F   0  0  0  0  0  0  0  0  0  0  0  0
  147.1390  154.5080  132.4310 F   0  0  0  0  0  0  0  0  0  0  0  0
  146.1670  156.9580  133.3420 C   0  0  0  0  0  0  0  0  0  0  0  0
  145.7680  158.2940  133.4550 C   0  0  0  0  0  0  0  0  0  0  0  0
  144.5140  158.7860  133.5450 N   0  0  0  0  0  0  0  0  0  0  0  0
  143.3030  158.0110  133.5650 C   0  0  0  0  0  0  0  0  0  0  0  0
  142.7220  157.7310  132.4830 O   0  0  0  0  0  0  0  0  0  0  0  0
  142.7730  157.4520  134.8500 C   0  0  0  0  0  0  0  0  0  0  0  0
  141.7840  158.3610  135.4130 N   0  0  0  0  0  0  0  0  0  0  0  0
  140.3840  158.2400  135.1530 C   0  0  0  0  0  0  0  0  0  0  0  0
  139.6030  157.8240  136.0500 O   0  0  0  0  0  0  0  0  0  0  0  0
  139.8490  158.6030  133.8380 C   0  0  0  0  0  0  0  0  0  0  0  0
  139.2540  157.7600  132.9220 C   0  0  0  0  0  0  0  0  0  0  0  0
  138.8990  158.4740  131.8360 N   0  0  0  0  0  0  0  0  0  0  0  0
  139.2990  159.7230  132.1530 C   0  0  0  0  0  0  0  0  0  0  0  0
  139.1460  160.7080  131.3850 O   0  0  0  0  0  0  0  0  0  0  0  0
  139.8630  159.8120  133.3340 O   0  0  0  0  0  0  0  0  0  0  0  0
  141.4030  161.3640  133.7950 H   0  0  0  0  0  0  0  0  0  0  0  0
  141.9360  159.6550  133.6570 H   0  0  0  0  0  0  0  0  0  0  0  0
  146.4218  161.5007  133.7692 H   0  0  0  0  0  0  0  0  0  0  0  0
  148.7787  159.8930  133.5482 H   0  0  0  0  0  0  0  0  0  0  0  0
  149.5650  157.5132  133.3315 H   0  0  0  0  0  0  0  0  0  0  0  0
  145.4227  156.1486  133.3114 H   0  0  0  0  0  0  0  0  0  0  0  0
  142.3040  156.4758  134.6576 H   0  0  0  0  0  0  0  0  0  0  0  0
  143.6021  157.3309  135.5627 H   0  0  0  0  0  0  0  0  0  0  0  0
  139.0952  156.6799  133.0566 H   0  0  0  0  0  0  0  0  0  0  0  0
  1  2  1  0
  2  3  2  0
  2  4  1  0
  4  5  2  0
  5  6  1  0
  6  7  2  0
  7  8  1  0
  8  9  2  0
  9 10  1  0
 10 11  1  0
 10 12  1  0
 10 13  1  0
  9 14  1  0
 14 15  2  0
 15 16  1  0
 16 17  1  0
 17 18  2  0
 17 19  1  0
 19 20  1  0
 20 21  1  0
 21 22  2  0
 21 23  1  0
 23 24  2  0
 24 25  1  0
 25 26  1  0
 26 27  2  0
 26 28  1  0
 16  4  1  0
 28 23  1  0
 15  6  1  0
  1 29  1  0
  1 30  1  0
  5 31  1  0
  7 32  1  0
  8 33  1  0
 14 34  1  0
 19 35  1  0
 19 36  1  0
 24 37  1  0
M  CHG  2  20  -1  25  -1
M  END
>  <UniqueID>  (47) 
46

>  <SMILES>  (47) 
NC(=O)c1cc2ccc(C(F)(F)F)cc2n1C(=O)C[N-]C(=O)c1c[n-]c(=O)o1

>  <Energy>  (47) 
105.95882003150908

>  <Genealogy>  (47) 
NC(=O)c1cc2ccc(C(F)(F)F)cc2n1C(=O)C[N-]C(=O)c1c[n-]c(=O)o1 (protonated)
NC(=O)c1cc2ccc(C(F)(F)F)cc2n1C(=O)C[N-]C(=O)c1c[n-]c(=O)o1 (3D coordinates assigned)
NC(=O)c1cc2ccc(C(F)(F)F)cc2n1C(=O)C[N-]C(=O)c1c[n-]c(=O)o1 (optimized conformer: 105.95882003150908 kcal/mol)

>  <smiles>  (47) 
NC(=O)c1cc2ccc(C(F)(F)F)cc2n1C(=O)CNC(=O)c1c[nH]c(=O)o1

>  <score_type>  (47) 
oracle

>  <origin>  (47) 
adg

>  <m_score__min__energy>  (47) 
-6.79

>  <m_primary>  (47) 
energy

$$$$
47:0
     RDKit          3D

 35 36  0  0  0  0  0  0  0  0999 V2000
  145.8610  154.2010  132.6060 C   0  0  0  0  0  0  0  0  0  0  0  0
  146.6210  153.0280  133.0670 N   0  0  0  0  0  0  0  0  0  0  0  0
  146.0280  151.7850  132.5460 C   0  0  0  0  0  0  0  0  0  0  0  0
  148.0030  153.1450  132.6500 C   0  0  0  0  0  0  0  0  0  0  0  0
  148.5400  152.2200  131.9790 O   0  0  0  0  0  0  0  0  0  0  0  0
  148.7910  154.3590  132.9480 C   0  0  0  0  0  0  0  0  0  0  0  0
  150.0010  154.4300  132.6000 O   0  0  0  0  0  0  0  0  0  0  0  0
  148.1910  155.4640  133.6410 N   0  0  0  0  0  0  0  0  0  0  0  0
  147.5040  155.4360  134.8180 C   0  0  0  0  0  0  0  0  0  0  0  0
  147.1220  154.2220  135.5690 C   0  0  0  0  0  0  0  0  0  0  0  0
  145.7900  154.0370  136.0400 N   0  0  0  0  0  0  0  0  0  0  0  0
  147.9920  153.3460  135.8220 O   0  0  0  0  0  0  0  0  0  0  0  0
  147.1520  156.7280  135.2060 C   0  0  0  0  0  0  0  0  0  0  0  0
  147.6500  157.5540  134.2220 C   0  0  0  0  0  0  0  0  0  0  0  0
  147.6050  158.9400  134.1060 C   0  0  0  0  0  0  0  0  0  0  0  0
  148.2340  159.5290  132.9950 C   0  0  0  0  0  0  0  0  0  0  0  0
  148.8980  158.7270  132.0320 C   0  0  0  0  0  0  0  0  0  0  0  0
  149.5820  159.3610  130.8550 C   0  0  0  0  0  0  0  0  0  0  0  0
  148.8830  159.0690  129.6990 F   0  0  0  0  0  0  0  0  0  0  0  0
  149.6300  160.7320  131.0240 F   0  0  0  0  0  0  0  0  0  0  0  0
  148.9260  157.3240  132.1870 C   0  0  0  0  0  0  0  0  0  0  0  0
  148.2750  156.7650  133.2920 C   0  0  0  0  0  0  0  0  0  0  0  0
  145.4950  154.7659  133.4761 H   0  0  0  0  0  0  0  0  0  0  0  0
  146.5137  154.8453  131.9987 H   0  0  0  0  0  0  0  0  0  0  0  0
  145.0062  153.8686  131.9987 H   0  0  0  0  0  0  0  0  0  0  0  0
  146.5600  152.9890  134.1100 H   0  0  0  0  0  0  0  0  0  0  0  0
  145.7223  151.1443  133.3863 H   0  0  0  0  0  0  0  0  0  0  0  0
  145.1487  152.0278  131.9313 H   0  0  0  0  0  0  0  0  0  0  0  0
  146.7700  151.2543  131.9313 H   0  0  0  0  0  0  0  0  0  0  0  0
  145.4690  154.4790  136.9300 H   0  0  0  0  0  0  0  0  0  0  0  0
  146.5948  157.0250  136.1067 H   0  0  0  0  0  0  0  0  0  0  0  0
  147.0931  159.5558  134.8602 H   0  0  0  0  0  0  0  0  0  0  0  0
  148.2109  160.6218  132.8716 H   0  0  0  0  0  0  0  0  0  0  0  0
  150.6054  158.9651  130.7781 H   0  0  0  0  0  0  0  0  0  0  0  0
  149.4466  156.6864  131.4573 H   0  0  0  0  0  0  0  0  0  0  0  0
  1  2  1  0
  2  3  1  0
  2  4  1  0
  4  5  2  0
  4  6  1  0
  6  7  2  0
  6  8  1  0
  8  9  1  0
  9 10  1  0
 10 11  1  0
 10 12  2  0
  9 13  2  0
 13 14  1  0
 14 15  2  0
 15 16  1  0
 16 17  2  0
 17 18  1  0
 18 19  1  0
 18 20  1  0
 17 21  1  0
 21 22  2  0
 22  8  1  0
 22 14  1  0
  1 23  1  0
  1 24  1  0
  1 25  1  0
  2 26  1  0
  3 27  1  0
  3 28  1  0
  3 29  1  0
 11 30  1  0
 13 31  1  0
 15 32  1  0
 16 33  1  0
 18 34  1  0
 21 35  1  0
M  CHG  2   2   1  11  -1
M  END
>  <UniqueID>  (48) 
47

>  <SMILES>  (48) 
C[NH+](C)C(=O)C(=O)n1c(C([NH-])=O)cc2ccc(C(F)F)cc21

>  <Energy>  (48) 
75.03855003987681

>  <Genealogy>  (48) 
C[NH+](C)C(=O)C(=O)n1c(C([NH-])=O)cc2ccc(C(F)F)cc21 (protonated)
C[NH+](C)C(=O)C(=O)n1c(C([NH-])=O)cc2ccc(C(F)F)cc21 (3D coordinates assigned)
C[NH+](C)C(=O)C(=O)n1c(C([NH-])=O)cc2ccc(C(F)F)cc21 (optimized conformer: 75.03855003987681 kcal/mol)

>  <smiles>  (48) 
CN(C)C(=O)C(=O)n1c(C(N)=O)cc2ccc(C(F)F)cc21

>  <score_type>  (48) 
oracle

>  <origin>  (48) 
adg

>  <m_score__min__energy>  (48) 
-5.3399999999999999

>  <m_primary>  (48) 
energy

$$$$
48:0
     RDKit          3D

 41 42  0  0  0  0  0  0  0  0999 V2000
  150.7440  149.8180  130.3630 C   0  0  0  0  0  0  0  0  0  0  0  0
  149.9460  151.1130  130.4650 C   0  0  0  0  0  0  0  0  0  0  0  0
  149.2060  151.1490  131.6830 O   0  0  0  0  0  0  0  0  0  0  0  0
  149.5620  151.9480  132.7760 C   0  0  0  0  0  0  0  0  0  0  0  0
  149.6540  151.4570  133.9330 O   0  0  0  0  0  0  0  0  0  0  0  0
  149.8910  153.3890  132.5520 C   0  0  0  0  0  0  0  0  0  0  0  0
  148.6570  154.2250  132.7430 C   0  0  0  0  0  0  0  0  0  0  0  0
  147.3940  153.6040  132.9170 C   0  0  0  0  0  0  0  0  0  0  0  0
  146.2390  154.3760  133.1260 C   0  0  0  0  0  0  0  0  0  0  0  0
  146.3800  155.7600  133.1730 C   0  0  0  0  0  0  0  0  0  0  0  0
  145.4320  156.7440  133.3400 C   0  0  0  0  0  0  0  0  0  0  0  0
  146.1360  157.9450  133.3030 C   0  0  0  0  0  0  0  0  0  0  0  0
  145.5070  159.2640  133.5150 C   0  0  0  0  0  0  0  0  0  0  0  0
  146.1940  160.4750  133.1970 N   0  0  0  0  0  0  0  0  0  0  0  0
  144.3580  159.3250  134.0290 O   0  0  0  0  0  0  0  0  0  0  0  0
  147.4650  157.7150  133.1060 N   0  0  0  0  0  0  0  0  0  0  0  0
  148.5120  158.6780  132.9000 C   0  0  0  0  0  0  0  0  0  0  0  0
  148.8780  159.4170  133.8530 O   0  0  0  0  0  0  0  0  0  0  0  0
  149.2190  158.7790  131.5810 C   0  0  0  0  0  0  0  0  0  0  0  0
  149.1570  160.4930  130.9560 S   0  0  0  0  0  0  0  0  0  0  0  0
  149.9790  160.1410  129.3680 C   0  0  0  0  0  0  0  0  0  0  0  0
  147.5980  156.3730  133.0350 C   0  0  0  0  0  0  0  0  0  0  0  0
  148.7620  155.6320  132.8070 C   0  0  0  0  0  0  0  0  0  0  0  0
  150.9723  149.4475  131.3732 H   0  0  0  0  0  0  0  0  0  0  0  0
  150.1531  149.0649  129.8211 H   0  0  0  0  0  0  0  0  0  0  0  0
  151.6824  150.0072  129.8211 H   0  0  0  0  0  0  0  0  0  0  0  0
  150.6378  151.9677  130.4364 H   0  0  0  0  0  0  0  0  0  0  0  0
  149.2434  151.1653  129.6202 H   0  0  0  0  0  0  0  0  0  0  0  0
  150.6614  153.7044  133.2710 H   0  0  0  0  0  0  0  0  0  0  0  0
  150.2666  153.5222  131.5267 H   0  0  0  0  0  0  0  0  0  0  0  0
  147.3179  152.5070  132.8881 H   0  0  0  0  0  0  0  0  0  0  0  0
  145.2541  153.9017  133.2487 H   0  0  0  0  0  0  0  0  0  0  0  0
  144.3485  156.6101  133.4742 H   0  0  0  0  0  0  0  0  0  0  0  0
  145.7110  161.3940  133.3050 H   0  0  0  0  0  0  0  0  0  0  0  0
  147.2050  160.4720  132.9420 H   0  0  0  0  0  0  0  0  0  0  0  0
  150.2691  158.4774  131.7085 H   0  0  0  0  0  0  0  0  0  0  0  0
  148.7210  158.1169  130.8574 H   0  0  0  0  0  0  0  0  0  0  0  0
  150.9751  159.7145  129.5574 H   0  0  0  0  0  0  0  0  0  0  0  0
  149.3755  159.4224  128.7941 H   0  0  0  0  0  0  0  0  0  0  0  0
  150.0826  161.0737  128.7941 H   0  0  0  0  0  0  0  0  0  0  0  0
  149.7337  156.1319  132.6809 H   0  0  0  0  0  0  0  0  0  0  0  0
  1  2  1  0
  2  3  1  0
  3  4  1  0
  4  5  2  0
  4  6  1  0
  6  7  1  0
  7  8  2  0
  8  9  1  0
  9 10  2  0
 10 11  1  0
 11 12  2  0
 12 13  1  0
 13 14  1  0
 13 15  2  0
 12 16  1  0
 16 17  1  0
 17 18  2  0
 17 19  1  0
 19 20  1  0
 20 21  1  0
 16 22  1  0
 22 23  2  0
 23  7  1  0
 22 10  1  0
  1 24  1  0
  1 25  1  0
  1 26  1  0
  2 27  1  0
  2 28  1  0
  6 29  1  0
  6 30  1  0
  8 31  1  0
  9 32  1  0
 11 33  1  0
 14 34  1  0
 14 35  1  0
 19 36  1  0
 19 37  1  0
 21 38  1  0
 21 39  1  0
 21 40  1  0
 23 41  1  0
M  END
>  <UniqueID>  (49) 
48

>  <SMILES>  (49) 
CCOC(=O)Cc1ccc2cc(C(N)=O)n(C(=O)CSC)c2c1

>  <Energy>  (49) 
69.39662567863104

>  <Genealogy>  (49) 
CCOC(=O)Cc1ccc2cc(C(N)=O)n(C(=O)CSC)c2c1 (3D coordinates assigned)
CCOC(=O)Cc1ccc2cc(C(N)=O)n(C(=O)CSC)c2c1 (optimized conformer: 69.39662567863104 kcal/mol)

>  <smiles>  (49) 
CCOC(=O)Cc1ccc2cc(C(N)=O)n(C(=O)CSC)c2c1

>  <score_type>  (49) 
oracle

>  <origin>  (49) 
adg

>  <m_score__min__energy>  (49) 
-7.0899999999999999

>  <m_primary>  (49) 
energy

$$$$
49:0
     RDKit          3D

 43 45  0  0  0  0  0  0  0  0999 V2000
  149.1530  150.3960  132.3030 C   0  0  0  0  0  0  0  0  0  0  0  0
  148.2740  151.4780  132.5780 O   0  0  0  0  0  0  0  0  0  0  0  0
  148.7020  152.8040  132.5250 C   0  0  0  0  0  0  0  0  0  0  0  0
  149.9650  153.1680  132.2420 N   0  0  0  0  0  0  0  0  0  0  0  0
  149.9820  154.4910  132.2870 N   0  0  0  0  0  0  0  0  0  0  0  0
  148.7280  154.8800  132.5950 C   0  0  0  0  0  0  0  0  0  0  0  0
  148.3010  156.2840  132.7450 C   0  0  0  0  0  0  0  0  0  0  0  0
  149.2340  157.3400  132.5900 C   0  0  0  0  0  0  0  0  0  0  0  0
  148.8300  158.6790  132.7190 C   0  0  0  0  0  0  0  0  0  0  0  0
  147.4940  158.9320  133.0110 C   0  0  0  0  0  0  0  0  0  0  0  0
  146.8320  160.1290  133.1590 C   0  0  0  0  0  0  0  0  0  0  0  0
  145.5080  159.7890  133.4270 C   0  0  0  0  0  0  0  0  0  0  0  0
  144.4590  160.7830  133.7340 C   0  0  0  0  0  0  0  0  0  0  0  0
  143.0910  160.5200  133.4340 N   0  0  0  0  0  0  0  0  0  0  0  0
  144.7680  161.8570  134.3140 O   0  0  0  0  0  0  0  0  0  0  0  0
  145.3550  158.4340  133.4380 N   0  0  0  0  0  0  0  0  0  0  0  0
  144.1340  157.6900  133.5750 C   0  0  0  0  0  0  0  0  0  0  0  0
  143.2070  157.8550  132.7370 O   0  0  0  0  0  0  0  0  0  0  0  0
  143.9830  156.8070  134.6550 O   0  0  0  0  0  0  0  0  0  0  0  0
  143.9630  155.3740  134.5860 C   0  0  0  0  0  0  0  0  0  0  0  0
  144.0340  154.8990  133.1220 C   0  0  0  0  0  0  0  0  0  0  0  0
  142.7050  154.8150  135.2780 C   0  0  0  0  0  0  0  0  0  0  0  0
  145.2070  154.8680  135.3320 C   0  0  0  0  0  0  0  0  0  0  0  0
  146.5810  157.9240  133.1830 C   0  0  0  0  0  0  0  0  0  0  0  0
  146.9520  156.5810  133.0400 C   0  0  0  0  0  0  0  0  0  0  0  0
  147.9340  153.8450  132.7430 O   0  0  0  0  0  0  0  0  0  0  0  0
  149.5064  149.9610  133.2495 H   0  0  0  0  0  0  0  0  0  0  0  0
  148.6194  149.6284  131.7233 H   0  0  0  0  0  0  0  0  0  0  0  0
  150.0136  150.7610  131.7233 H   0  0  0  0  0  0  0  0  0  0  0  0
  150.2858  157.1082  132.3663 H   0  0  0  0  0  0  0  0  0  0  0  0
  149.5484  159.5024  132.5929 H   0  0  0  0  0  0  0  0  0  0  0  0
  147.2580  161.1402  133.0820 H   0  0  0  0  0  0  0  0  0  0  0  0
  142.8220  159.9670  132.5900 H   0  0  0  0  0  0  0  0  0  0  0  0
  144.1966  153.8114  133.0969 H   0  0  0  0  0  0  0  0  0  0  0  0
  143.0898  155.1405  132.6120 H   0  0  0  0  0  0  0  0  0  0  0  0
  144.8663  155.4060  132.6120 H   0  0  0  0  0  0  0  0  0  0  0  0
  142.8313  154.8711  136.3693 H   0  0  0  0  0  0  0  0  0  0  0  0
  141.8281  155.4082  134.9794 H   0  0  0  0  0  0  0  0  0  0  0  0
  142.5575  153.7666  134.9794 H   0  0  0  0  0  0  0  0  0  0  0  0
  145.0374  154.9370  136.4167 H   0  0  0  0  0  0  0  0  0  0  0  0
  145.3988  153.8204  135.0567 H   0  0  0  0  0  0  0  0  0  0  0  0
  146.0756  155.4843  135.0567 H   0  0  0  0  0  0  0  0  0  0  0  0
  146.2104  155.7767  133.1547 H   0  0  0  0  0  0  0  0  0  0  0  0
  1  2  1  0
  2  3  1  0
  3  4  2  0
  4  5  1  0
  5  6  2  0
  6  7  1  0
  7  8  2  0
  8  9  1  0
  9 10  2  0
 10 11  1  0
 11 12  2  0
 12 13  1  0
 13 14  1  0
 13 15  2  0
 12 16  1  0
 16 17  1  0
 17 18  2  0
 17 19  1  0
 19 20  1  0
 20 21  1  0
 20 22  1  0
 20 23  1  0
 16 24  1  0
 24 25  2  0
  6 26  1  0
 26  3  1  0
 25  7  1  0
 24 10  1  0
  1 27  1  0
  1 28  1  0
  1 29  1  0
  8 30  1  0
  9 31  1  0
 11 32  1  0
 14 33  1  0
 21 34  1  0
 21 35  1  0
 21 36  1  0
 22 37  1  0
 22 38  1  0
 22 39  1  0
 23 40  1  0
 23 41  1  0
 23 42  1  0
 25 43  1  0
M  CHG  1  14  -1
M  END
>  <UniqueID>  (50) 
49

>  <SMILES>  (50) 
COc1nnc(-c2ccc3cc(C([NH-])=O)n(C(=O)OC(C)(C)C)c3c2)o1

>  <Energy>  (50) 
111.57419481181846

>  <Genealogy>  (50) 
COc1nnc(-c2ccc3cc(C([NH-])=O)n(C(=O)OC(C)(C)C)c3c2)o1 (protonated)
COc1nnc(-c2ccc3cc(C([NH-])=O)n(C(=O)OC(C)(C)C)c3c2)o1 (3D coordinates assigned)
COc1nnc(-c2ccc3cc(C([NH-])=O)n(C(=O)OC(C)(C)C)c3c2)o1 (optimized conformer: 111.57419481181846 kcal/mol)

>  <smiles>  (50) 
COc1nnc(-c2ccc3cc(C(N)=O)n(C(=O)OC(C)(C)C)c3c2)o1

>  <score_type>  (50) 
oracle

>  <origin>  (50) 
adg

>  <m_score__min__energy>  (50) 
-7.5199999999999996

>  <m_primary>  (50) 
energy

$$$$
50:0
     RDKit          3D

 44 47  0  0  0  0  0  0  0  0999 V2000
  148.5280  157.1900  131.9940 N   0  0  0  0  0  0  0  0  0  0  0  0
  148.3310  158.3670  132.7830 C   0  0  0  0  0  0  0  0  0  0  0  0
  149.3400  159.0090  133.1820 O   0  0  0  0  0  0  0  0  0  0  0  0
  146.9700  158.8100  133.1650 C   0  0  0  0  0  0  0  0  0  0  0  0
  146.5830  160.1450  133.2820 C   0  0  0  0  0  0  0  0  0  0  0  0
  145.2310  160.1140  133.5410 C   0  0  0  0  0  0  0  0  0  0  0  0
  144.3330  161.1580  133.7450 C   0  0  0  0  0  0  0  0  0  0  0  0
  142.9910  160.8320  134.0020 C   0  0  0  0  0  0  0  0  0  0  0  0
  142.5740  159.4820  134.0620 C   0  0  0  0  0  0  0  0  0  0  0  0
  141.1130  159.1770  134.3050 C   0  0  1  0  0  0  0  0  0  0  0  0
  140.6230  158.8950  135.7110 C   0  0  0  0  0  0  0  0  0  0  0  0
  140.8660  157.7260  134.7800 C   0  0  1  0  0  0  0  0  0  0  0  0
  139.9060  157.5420  133.6140 C   0  0  0  0  0  0  0  0  0  0  0  0
  138.6000  157.3360  134.0250 F   0  0  0  0  0  0  0  0  0  0  0  0
  140.3360  156.5830  132.7120 F   0  0  0  0  0  0  0  0  0  0  0  0
  140.1620  158.9580  133.1360 C   0  0  0  0  0  0  0  0  0  0  0  0
  143.5140  158.4480  133.8350 C   0  0  0  0  0  0  0  0  0  0  0  0
  144.8410  158.8030  133.5720 C   0  0  0  0  0  0  0  0  0  0  0  0
  145.8950  157.9910  133.3470 N   0  0  0  0  0  0  0  0  0  0  0  0
  145.8790  156.5550  133.3520 C   0  0  0  0  0  0  0  0  0  0  0  0
  145.9670  155.9240  132.2650 O   0  0  0  0  0  0  0  0  0  0  0  0
  145.7580  155.8680  134.5640 O   0  0  0  0  0  0  0  0  0  0  0  0
  146.2150  154.5300  134.7540 C   0  0  0  0  0  0  0  0  0  0  0  0
  147.7250  154.4370  134.4980 C   0  0  0  0  0  0  0  0  0  0  0  0
  148.0360  153.8000  133.1390 C   0  0  0  0  0  0  0  0  0  0  0  0
  148.4480  154.7650  132.2110 O   0  0  0  0  0  0  0  0  0  0  0  0
  149.4990  156.8500  131.8030 H   0  0  0  0  0  0  0  0  0  0  0  0
  147.7290  156.7070  131.5310 H   0  0  0  0  0  0  0  0  0  0  0  0
  147.2228  161.0348  133.1873 H   0  0  0  0  0  0  0  0  0  0  0  0
  144.6642  162.2062  133.7061 H   0  0  0  0  0  0  0  0  0  0  0  0
  142.2564  161.6357  134.1583 H   0  0  0  0  0  0  0  0  0  0  0  0
  141.2942  159.0603  136.5667 H   0  0  0  0  0  0  0  0  0  0  0  0
  139.7660  159.2363  136.3102 H   0  0  0  0  0  0  0  0  0  0  0  0
  141.2584  156.7387  135.0649 H   0  0  0  0  0  0  0  0  0  0  0  0
  140.6422  159.0192  132.1482 H   0  0  0  0  0  0  0  0  0  0  0  0
  139.3234  159.6483  132.9622 H   0  0  0  0  0  0  0  0  0  0  0  0
  143.2083  157.3917  133.8647 H   0  0  0  0  0  0  0  0  0  0  0  0
  146.0031  154.2183  135.7874 H   0  0  0  0  0  0  0  0  0  0  0  0
  145.6925  153.8713  134.0448 H   0  0  0  0  0  0  0  0  0  0  0  0
  148.1529  155.4501  134.5222 H   0  0  0  0  0  0  0  0  0  0  0  0
  148.1651  153.8019  135.2809 H   0  0  0  0  0  0  0  0  0  0  0  0
  148.8381  153.0579  133.2654 H   0  0  0  0  0  0  0  0  0  0  0  0
  147.1210  153.3206  132.7609 H   0  0  0  0  0  0  0  0  0  0  0  0
  147.7160  154.8480  131.5440 H   0  0  0  0  0  0  0  0  0  0  0  0
  1  2  1  0
  2  3  2  0
  2  4  1  0
  4  5  2  0
  5  6  1  0
  6  7  2  0
  7  8  1  0
  8  9  2  0
 10  9  1  1
 10 11  1  0
 11 12  1  0
 12 13  1  0
 13 14  1  0
 13 15  1  0
 13 16  1  0
  9 17  1  0
 17 18  2  0
 18 19  1  0
 19 20  1  0
 20 21  2  0
 20 22  1  0
 22 23  1  0
 23 24  1  0
 24 25  1  0
 25 26  1  0
 19  4  1  0
 18  6  1  0
 12 10  1  0
 16 10  1  0
  1 27  1  0
  1 28  1  0
  5 29  1  0
  7 30  1  0
  8 31  1  0
 11 32  1  0
 11 33  1  0
 12 34  1  1
 16 35  1  0
 16 36  1  0
 17 37  1  0
 23 38  1  0
 23 39  1  0
 24 40  1  0
 24 41  1  0
 25 42  1  0
 25 43  1  0
 26 44  1  0
M  END
>  <UniqueID>  (51) 
50

>  <SMILES>  (51) 
NC(=O)c1cc2ccc([C@]34C[C@H]3C(F)(F)C4)cc2n1C(=O)OCCCO

>  <Energy>  (51) 
406.99998168804336

>  <Genealogy>  (51) 
NC(=O)c1cc2ccc([C@]34C[C@H]3C(F)(F)C4)cc2n1C(=O)OCCCO (chirality)
NC(=O)c1cc2ccc([C@]34C[C@H]3C(F)(F)C4)cc2n1C(=O)OCCCO (3D coordinates assigned)
NC(=O)c1cc2ccc([C@]34C[C@H]3C(F)(F)C4)cc2n1C(=O)OCCCO (nonaromatic ring conformer: 406.99998168804336 kcal/mol)

>  <smiles>  (51) 
NC(=O)c1cc2ccc(C34CC3C(F)(F)C4)cc2n1C(=O)OCCCO

>  <score_type>  (51) 
oracle

>  <origin>  (51) 
adg

>  <m_score__min__energy>  (51) 
-7.3799999999999999

>  <m_primary>  (51) 
energy

$$$$
51:0
     RDKit          3D

 47 50  0  0  0  0  0  0  0  0999 V2000
  149.8390  151.9690  132.3990 C   0  0  0  0  0  0  0  0  0  0  0  0
  148.8280  152.9620  132.7410 N   0  0  0  0  0  0  0  0  0  0  0  0
  148.9490  154.2940  132.5960 C   0  0  0  0  0  0  0  0  0  0  0  0
  147.8100  154.8930  133.1190 C   0  0  0  0  0  0  0  0  0  0  0  0
  147.5000  156.3440  133.1810 C   0  0  0  0  0  0  0  0  0  0  0  0
  148.5340  157.3090  133.0340 C   0  0  0  0  0  0  0  0  0  0  0  0
  148.2530  158.6840  133.0990 C   0  0  0  0  0  0  0  0  0  0  0  0
  146.9330  159.0720  133.3070 C   0  0  0  0  0  0  0  0  0  0  0  0
  146.3850  160.3290  133.4270 C   0  0  0  0  0  0  0  0  0  0  0  0
  145.0220  160.1190  133.6300 C   0  0  0  0  0  0  0  0  0  0  0  0
  144.0310  161.2080  133.7320 C   0  0  0  0  0  0  0  0  0  0  0  0
  142.6380  160.9020  133.7550 N   0  0  0  0  0  0  0  0  0  0  0  0
  144.4000  162.4080  133.8280 O   0  0  0  0  0  0  0  0  0  0  0  0
  144.7440  158.7850  133.6430 N   0  0  0  0  0  0  0  0  0  0  0  0
  143.4820  158.1440  133.8830 C   0  0  0  0  0  0  0  0  0  0  0  0
  142.9460  158.2390  135.0200 O   0  0  0  0  0  0  0  0  0  0  0  0
  142.7340  157.4870  132.7540 C   0  0  0  0  0  0  0  0  0  0  0  0
  141.2030  157.5570  132.9380 C   0  0  0  0  0  0  0  0  0  0  0  0
  140.7940  158.8280  133.5520 N   0  0  0  0  0  0  0  0  0  0  0  0
  139.8230  159.5230  132.6890 C   0  0  0  0  0  0  0  0  0  0  0  0
  139.9070  159.1220  131.2230 C   0  0  0  0  0  0  0  0  0  0  0  0
  138.7400  158.6450  132.0770 C   0  0  0  0  0  0  0  0  0  0  0  0
  145.9220  158.1590  133.4390 C   0  0  0  0  0  0  0  0  0  0  0  0
  146.1710  156.7850  133.3910 C   0  0  0  0  0  0  0  0  0  0  0  0
  147.0350  153.8390  133.5850 C   0  0  0  0  0  0  0  0  0  0  0  0
  147.6850  152.6860  133.3460 N   0  0  0  0  0  0  0  0  0  0  0  0
  150.2669  151.5487  133.3211 H   0  0  0  0  0  0  0  0  0  0  0  0
  149.3771  151.1637  131.8089 H   0  0  0  0  0  0  0  0  0  0  0  0
  150.6359  152.4452  131.8089 H   0  0  0  0  0  0  0  0  0  0  0  0
  149.8026  154.8183  132.1417 H   0  0  0  0  0  0  0  0  0  0  0  0
  149.5684  156.9742  132.8670 H   0  0  0  0  0  0  0  0  0  0  0  0
  149.0525  159.4314  132.9888 H   0  0  0  0  0  0  0  0  0  0  0  0
  146.9107  161.2938  133.3740 H   0  0  0  0  0  0  0  0  0  0  0  0
  142.2530  160.2040  134.4290 H   0  0  0  0  0  0  0  0  0  0  0  0
  142.9996  157.9925  131.8138 H   0  0  0  0  0  0  0  0  0  0  0  0
  143.0200  156.4249  132.7376 H   0  0  0  0  0  0  0  0  0  0  0  0
  140.7197  157.4629  131.9544 H   0  0  0  0  0  0  0  0  0  0  0  0
  140.8966  156.7367  133.6037 H   0  0  0  0  0  0  0  0  0  0  0  0
  141.6580  159.4060  133.6860 H   0  0  0  0  0  0  0  0  0  0  0  0
  139.8209  160.4687  133.2508 H   0  0  0  0  0  0  0  0  0  0  0  0
  139.7422  159.8736  130.4369 H   0  0  0  0  0  0  0  0  0  0  0  0
  140.6626  158.6293  130.5935 H   0  0  0  0  0  0  0  0  0  0  0  0
  137.7322  159.0521  131.9079 H   0  0  0  0  0  0  0  0  0  0  0  0
  138.3033  157.6651  132.3201 H   0  0  0  0  0  0  0  0  0  0  0  0
  145.3519  156.0612  133.5138 H   0  0  0  0  0  0  0  0  0  0  0  0
  146.0519  153.9318  134.0696 H   0  0  0  0  0  0  0  0  0  0  0  0
  147.3560  151.7280  133.6000 H   0  0  0  0  0  0  0  0  0  0  0  0
  1  2  1  0
  2  3  1  0
  3  4  2  0
  4  5  1  0
  5  6  2  0
  6  7  1  0
  7  8  2  0
  8  9  1  0
  9 10  2  0
 10 11  1  0
 11 12  1  0
 11 13  2  0
 10 14  1  0
 14 15  1  0
 15 16  2  0
 15 17  1  0
 17 18  1  0
 18 19  1  0
 19 20  1  0
 20 21  1  0
 21 22  1  0
 14 23  1  0
 23 24  2  0
  4 25  1  0
 25 26  2  0
 26  2  1  0
 24  5  1  0
 23  8  1  0
 22 20  1  0
  1 27  1  0
  1 28  1  0
  1 29  1  0
  3 30  1  0
  6 31  1  0
  7 32  1  0
  9 33  1  0
 12 34  1  0
 17 35  1  0
 17 36  1  0
 18 37  1  0
 18 38  1  0
 19 39  1  0
 20 40  1  0
 21 41  1  0
 21 42  1  0
 22 43  1  0
 22 44  1  0
 24 45  1  0
 25 46  1  0
 26 47  1  0
M  CHG  2  12  -1  26   1
M  END
>  <UniqueID>  (52) 
51

>  <SMILES>  (52) 
Cn1cc(-c2ccc3cc(C([NH-])=O)n(C(=O)CCNC4CC4)c3c2)c[nH+]1

>  <Energy>  (52) 
387.8670823734774

>  <Genealogy>  (52) 
Cn1cc(-c2ccc3cc(C([NH-])=O)n(C(=O)CCNC4CC4)c3c2)c[nH+]1 (protonated)
Cn1cc(-c2ccc3cc(C([NH-])=O)n(C(=O)CCNC4CC4)c3c2)c[nH+]1 (3D coordinates assigned)
Cn1cc(-c2ccc3cc(C([NH-])=O)n(C(=O)CCNC4CC4)c3c2)c[nH+]1 (nonaromatic ring conformer: 387.8670823734774 kcal/mol)

>  <smiles>  (52) 
Cn1cc(-c2ccc3cc(C(N)=O)n(C(=O)CCNC4CC4)c3c2)cn1

>  <score_type>  (52) 
oracle

>  <origin>  (52) 
adg

>  <m_score__min__energy>  (52) 
-8.6899999999999995

>  <m_primary>  (52) 
energy

$$$$
52:0
     RDKit          3D

 53 55  0  0  0  0  0  0  0  0999 V2000
  149.2350  152.7510  132.5400 C   0  0  0  0  0  0  0  0  0  0  0  0
  148.8830  154.2350  132.6220 C   0  0  0  0  0  0  0  0  0  0  0  0
  147.8660  154.5260  133.7320 C   0  0  0  0  0  0  0  0  0  0  0  0
  147.6020  155.9570  133.8450 N   0  0  0  0  0  0  0  0  0  0  0  0
  146.4920  156.6110  133.2190 C   0  0  0  0  0  0  0  0  0  0  0  0
  145.6090  155.9340  132.6280 O   0  0  0  0  0  0  0  0  0  0  0  0
  146.4030  158.0440  133.2390 N   0  0  0  0  0  0  0  0  0  0  0  0
  147.3310  158.9420  132.8030 C   0  0  0  0  0  0  0  0  0  0  0  0
  148.7080  158.6100  132.3760 C   0  0  0  0  0  0  0  0  0  0  0  0
  149.0230  157.3110  131.8700 N   0  0  0  0  0  0  0  0  0  0  0  0
  149.6140  159.4820  132.4320 O   0  0  0  0  0  0  0  0  0  0  0  0
  146.8310  160.2410  132.8940 C   0  0  0  0  0  0  0  0  0  0  0  0
  145.5570  160.1070  133.3980 C   0  0  0  0  0  0  0  0  0  0  0  0
  144.5970  161.0760  133.6740 C   0  0  0  0  0  0  0  0  0  0  0  0
  143.3480  160.6460  134.1530 C   0  0  0  0  0  0  0  0  0  0  0  0
  143.0760  159.2650  134.3230 C   0  0  0  0  0  0  0  0  0  0  0  0
  141.7580  158.8290  134.8350 C   0  0  0  0  0  0  0  0  0  0  0  0
  141.6720  158.4670  136.1900 C   0  0  0  0  0  0  0  0  0  0  0  0
  140.4750  157.9880  136.7240 C   0  0  0  0  0  0  0  0  0  0  0  0
  139.3510  157.8600  135.9110 C   0  0  0  0  0  0  0  0  0  0  0  0
  139.4140  158.2270  134.5660 C   0  0  0  0  0  0  0  0  0  0  0  0
  140.6030  158.7360  134.0100 C   0  0  0  0  0  0  0  0  0  0  0  0
  140.5830  159.1840  132.5520 C   0  0  0  0  0  0  0  0  0  0  0  0
  139.2280  159.4460  132.0140 N   0  0  0  0  0  0  0  0  0  0  0  0
  138.7540  158.3800  131.1210 C   0  0  0  0  0  0  0  0  0  0  0  0
  139.1050  160.7650  131.3740 C   0  0  0  0  0  0  0  0  0  0  0  0
  144.0860  158.3140  134.0630 C   0  0  0  0  0  0  0  0  0  0  0  0
  145.3240  158.7720  133.5980 C   0  0  0  0  0  0  0  0  0  0  0  0
  149.3324  152.3406  133.5559 H   0  0  0  0  0  0  0  0  0  0  0  0
  148.4392  152.2146  132.0025 H   0  0  0  0  0  0  0  0  0  0  0  0
  150.1870  152.6291  132.0025 H   0  0  0  0  0  0  0  0  0  0  0  0
  149.8010  154.8067  132.8232 H   0  0  0  0  0  0  0  0  0  0  0  0
  148.4315  154.5296  131.6631 H   0  0  0  0  0  0  0  0  0  0  0  0
  146.9250  154.0048  133.5020 H   0  0  0  0  0  0  0  0  0  0  0  0
  148.2823  154.1724  134.6868 H   0  0  0  0  0  0  0  0  0  0  0  0
  149.9910  157.1000  131.5360 H   0  0  0  0  0  0  0  0  0  0  0  0
  148.3160  156.5440  131.8640 H   0  0  0  0  0  0  0  0  0  0  0  0
  147.3454  161.1742  132.6210 H   0  0  0  0  0  0  0  0  0  0  0  0
  144.8092  162.1446  133.5220 H   0  0  0  0  0  0  0  0  0  0  0  0
  142.5739  161.3879  134.3984 H   0  0  0  0  0  0  0  0  0  0  0  0
  142.5570  158.5621  136.8363 H   0  0  0  0  0  0  0  0  0  0  0  0
  140.4190  157.7114  137.7872 H   0  0  0  0  0  0  0  0  0  0  0  0
  138.4121  157.4689  136.3299 H   0  0  0  0  0  0  0  0  0  0  0  0
  138.5222  158.1170  133.9315 H   0  0  0  0  0  0  0  0  0  0  0  0
  141.1721  160.1091  132.4676 H   0  0  0  0  0  0  0  0  0  0  0  0
  141.0018  158.3556  131.9618 H   0  0  0  0  0  0  0  0  0  0  0  0
  138.3796  157.5380  131.7217 H   0  0  0  0  0  0  0  0  0  0  0  0
  137.9431  158.7669  130.4864 H   0  0  0  0  0  0  0  0  0  0  0  0
  139.5844  158.0370  130.4864 H   0  0  0  0  0  0  0  0  0  0  0  0
  139.0325  161.5429  132.1483 H   0  0  0  0  0  0  0  0  0  0  0  0
  139.9896  160.9525  130.7476 H   0  0  0  0  0  0  0  0  0  0  0  0
  138.2010  160.7857  130.7476 H   0  0  0  0  0  0  0  0  0  0  0  0
  143.9048  157.2407  134.2217 H   0  0  0  0  0  0  0  0  0  0  0  0
  1  2  1  0
  2  3  1  0
  3  4  1  0
  4  5  1  0
  5  6  2  0
  5  7  1  0
  7  8  1  0
  8  9  1  0
  9 10  1  0
  9 11  2  0
  8 12  2  0
 12 13  1  0
 13 14  2  0
 14 15  1  0
 15 16  2  0
 16 17  1  0
 17 18  2  0
 18 19  1  0
 19 20  2  0
 20 21  1  0
 21 22  2  0
 22 23  1  0
 23 24  1  0
 24 25  1  0
 24 26  1  0
 16 27  1  0
 27 28  2  0
 28  7  1  0
 28 13  1  0
 22 17  1  0
  1 29  1  0
  1 30  1  0
  1 31  1  0
  2 32  1  0
  2 33  1  0
  3 34  1  0
  3 35  1  0
 10 36  1  0
 10 37  1  0
 12 38  1  0
 14 39  1  0
 15 40  1  0
 18 41  1  0
 19 42  1  0
 20 43  1  0
 21 44  1  0
 23 45  1  0
 23 46  1  0
 25 47  1  0
 25 48  1  0
 25 49  1  0
 26 50  1  0
 26 51  1  0
 26 52  1  0
 27 53  1  0
M  CHG  1   4  -1
M  END
>  <UniqueID>  (53) 
52

>  <SMILES>  (53) 
CCC[N-]C(=O)n1c(C(N)=O)cc2ccc(-c3ccccc3CN(C)C)cc21

>  <Energy>  (53) 
97.58902710022791

>  <Genealogy>  (53) 
CCC[N-]C(=O)n1c(C(N)=O)cc2ccc(-c3ccccc3CN(C)C)cc21 (protonated)
CCC[N-]C(=O)n1c(C(N)=O)cc2ccc(-c3ccccc3CN(C)C)cc21 (3D coordinates assigned)
CCC[N-]C(=O)n1c(C(N)=O)cc2ccc(-c3ccccc3CN(C)C)cc21 (optimized conformer: 97.58902710022791 kcal/mol)

>  <smiles>  (53) 
CCCNC(=O)n1c(C(N)=O)cc2ccc(-c3ccccc3CN(C)C)cc21

>  <score_type>  (53) 
oracle

>  <origin>  (53) 
adg

>  <m_score__min__energy>  (53) 
-9.2699999999999996

>  <m_primary>  (53) 
energy

$$$$
53:0
     RDKit          3D

 35 36  0  0  0  0  0  0  0  0999 V2000
  142.7300  160.5450  133.3900 N   0  0  0  0  0  0  0  0  0  0  0  0
  144.0890  160.8110  133.7300 C   0  0  0  0  0  0  0  0  0  0  0  0
  144.4120  161.9660  134.1160 O   0  0  0  0  0  0  0  0  0  0  0  0
  145.1270  159.7700  133.5860 C   0  0  0  0  0  0  0  0  0  0  0  0
  146.4710  160.0530  133.3460 C   0  0  0  0  0  0  0  0  0  0  0  0
  147.0820  158.8280  133.2000 C   0  0  0  0  0  0  0  0  0  0  0  0
  148.4180  158.5150  132.9700 C   0  0  0  0  0  0  0  0  0  0  0  0
  148.7750  157.1580  132.9050 C   0  0  0  0  0  0  0  0  0  0  0  0
  147.7970  156.1410  133.0630 C   0  0  0  0  0  0  0  0  0  0  0  0
  148.2060  154.6900  133.0600 C   0  0  0  0  0  0  0  0  0  0  0  0
  149.3280  154.5350  132.2680 F   0  0  0  0  0  0  0  0  0  0  0  0
  147.1870  153.8980  132.5610 F   0  0  0  0  0  0  0  0  0  0  0  0
  148.4970  154.2610  134.3430 F   0  0  0  0  0  0  0  0  0  0  0  0
  146.4530  156.5030  133.3200 C   0  0  0  0  0  0  0  0  0  0  0  0
  146.1240  157.8620  133.3550 C   0  0  0  0  0  0  0  0  0  0  0  0
  144.9190  158.4230  133.5950 N   0  0  0  0  0  0  0  0  0  0  0  0
  143.7010  157.7180  133.8690 C   0  0  0  0  0  0  0  0  0  0  0  0
  143.6240  156.9600  134.8740 O   0  0  0  0  0  0  0  0  0  0  0  0
  142.6100  157.8630  133.0060 O   0  0  0  0  0  0  0  0  0  0  0  0
  141.4620  157.0220  133.0720 C   0  0  0  0  0  0  0  0  0  0  0  0
  140.1960  157.8610  133.2680 C   0  0  0  0  0  0  0  0  0  0  0  0
  139.7570  158.5780  131.9860 C   0  0  0  0  0  0  0  0  0  0  0  0
  140.5900  159.6720  131.7100 O   0  0  0  0  0  0  0  0  0  0  0  0
  142.4880  159.9710  132.5530 H   0  0  0  0  0  0  0  0  0  0  0  0
  146.9430  161.0448  133.2860 H   0  0  0  0  0  0  0  0  0  0  0  0
  149.1717  159.3061  132.8429 H   0  0  0  0  0  0  0  0  0  0  0  0
  149.8247  156.8800  132.7296 H   0  0  0  0  0  0  0  0  0  0  0  0
  145.6852  155.7335  133.4883 H   0  0  0  0  0  0  0  0  0  0  0  0
  141.3769  156.4508  132.1358 H   0  0  0  0  0  0  0  0  0  0  0  0
  141.5709  156.3359  133.9249 H   0  0  0  0  0  0  0  0  0  0  0  0
  139.3820  157.1982  133.5969 H   0  0  0  0  0  0  0  0  0  0  0  0
  140.4215  158.6321  134.0194 H   0  0  0  0  0  0  0  0  0  0  0  0
  139.8023  157.8705  131.1449 H   0  0  0  0  0  0  0  0  0  0  0  0
  138.7301  158.9467  132.1255 H   0  0  0  0  0  0  0  0  0  0  0  0
  141.5130  159.3930  131.9470 H   0  0  0  0  0  0  0  0  0  0  0  0
  1  2  1  0
  2  3  2  0
  2  4  1  0
  4  5  2  0
  5  6  1  0
  6  7  2  0
  7  8  1  0
  8  9  2  0
  9 10  1  0
 10 11  1  0
 10 12  1  0
 10 13  1  0
  9 14  1  0
 14 15  2  0
 15 16  1  0
 16 17  1  0
 17 18  2  0
 17 19  1  0
 19 20  1  0
 20 21  1  0
 21 22  1  0
 22 23  1  0
 16  4  1  0
 15  6  1  0
  1 24  1  0
  5 25  1  0
  7 26  1  0
  8 27  1  0
 14 28  1  0
 20 29  1  0
 20 30  1  0
 21 31  1  0
 21 32  1  0
 22 33  1  0
 22 34  1  0
 23 35  1  0
M  CHG  1   1  -1
M  END
>  <UniqueID>  (54) 
53

>  <SMILES>  (54) 
[NH-]C(=O)c1cc2ccc(C(F)(F)F)cc2n1C(=O)OCCCO

>  <Energy>  (54) 
68.56641855757535

>  <Genealogy>  (54) 
[NH-]C(=O)c1cc2ccc(C(F)(F)F)cc2n1C(=O)OCCCO (protonated)
[NH-]C(=O)c1cc2ccc(C(F)(F)F)cc2n1C(=O)OCCCO (3D coordinates assigned)
[NH-]C(=O)c1cc2ccc(C(F)(F)F)cc2n1C(=O)OCCCO (optimized conformer: 68.56641855757535 kcal/mol)

>  <smiles>  (54) 
NC(=O)c1cc2ccc(C(F)(F)F)cc2n1C(=O)OCCCO

>  <score_type>  (54) 
oracle

>  <origin>  (54) 
adg

>  <m_score__min__energy>  (54) 
-5.2800000000000002

>  <m_primary>  (54) 
energy

$$$$
54:0
     RDKit          3D

 32 33  0  0  0  0  0  0  0  0999 V2000
  148.7750  151.2890  132.0370 N   0  0  0  0  0  0  0  0  0  0  0  0
  149.1380  152.3600  132.2830 C   0  0  0  0  0  0  0  0  0  0  0  0
  149.5970  153.7170  132.5960 C   0  0  0  0  0  0  0  0  0  0  0  0
  148.4190  154.6040  132.8790 C   0  0  0  0  0  0  0  0  0  0  0  0
  147.1900  154.0430  133.3100 C   0  0  0  0  0  0  0  0  0  0  0  0
  146.0880  154.8650  133.5930 C   0  0  0  0  0  0  0  0  0  0  0  0
  146.2480  156.2410  133.4550 C   0  0  0  0  0  0  0  0  0  0  0  0
  145.3440  157.2640  133.6450 C   0  0  0  0  0  0  0  0  0  0  0  0
  146.0450  158.4340  133.3560 C   0  0  0  0  0  0  0  0  0  0  0  0
  145.4670  159.7890  133.4770 C   0  0  0  0  0  0  0  0  0  0  0  0
  146.3230  160.9090  133.6940 N   0  0  0  0  0  0  0  0  0  0  0  0
  144.2260  159.9720  133.3720 O   0  0  0  0  0  0  0  0  0  0  0  0
  147.3300  158.1450  133.0060 N   0  0  0  0  0  0  0  0  0  0  0  0
  148.3540  159.0680  132.6060 C   0  0  0  0  0  0  0  0  0  0  0  0
  148.7240  159.9720  133.4040 O   0  0  0  0  0  0  0  0  0  0  0  0
  149.0560  158.9020  131.2880 C   0  0  0  0  0  0  0  0  0  0  0  0
  148.8650  160.1050  130.4130 C   0  0  0  0  0  0  0  0  0  0  0  0
  148.1160  161.2260  130.8830 N   0  0  0  0  0  0  0  0  0  0  0  0
  149.3470  160.1200  129.2500 O   0  0  0  0  0  0  0  0  0  0  0  0
  147.4380  156.8010  133.0670 C   0  0  0  0  0  0  0  0  0  0  0  0
  148.5460  156.0060  132.7590 C   0  0  0  0  0  0  0  0  0  0  0  0
  150.2505  153.6858  133.4803 H   0  0  0  0  0  0  0  0  0  0  0  0
  150.1530  154.1180  131.7357 H   0  0  0  0  0  0  0  0  0  0  0  0
  147.0994  152.9527  133.4237 H   0  0  0  0  0  0  0  0  0  0  0  0
  145.1276  154.4352  133.9139 H   0  0  0  0  0  0  0  0  0  0  0  0
  144.2931  157.1760  133.9580 H   0  0  0  0  0  0  0  0  0  0  0  0
  146.9920  161.2240  132.9570 H   0  0  0  0  0  0  0  0  0  0  0  0
  150.1313  158.7588  131.4704 H   0  0  0  0  0  0  0  0  0  0  0  0
  148.6283  158.0282  130.7747 H   0  0  0  0  0  0  0  0  0  0  0  0
  147.9740  162.0590  130.2690 H   0  0  0  0  0  0  0  0  0  0  0  0
  147.7020  161.2280  131.8410 H   0  0  0  0  0  0  0  0  0  0  0  0
  149.4927  156.4605  132.4315 H   0  0  0  0  0  0  0  0  0  0  0  0
  1  2  3  0
  2  3  1  0
  3  4  1  0
  4  5  2  0
  5  6  1  0
  6  7  2  0
  7  8  1  0
  8  9  2  0
  9 10  1  0
 10 11  1  0
 10 12  2  0
  9 13  1  0
 13 14  1  0
 14 15  2  0
 14 16  1  0
 16 17  1  0
 17 18  1  0
 17 19  2  0
 13 20  1  0
 20 21  2  0
 21  4  1  0
 20  7  1  0
  3 22  1  0
  3 23  1  0
  5 24  1  0
  6 25  1  0
  8 26  1  0
 11 27  1  0
 16 28  1  0
 16 29  1  0
 18 30  1  0
 18 31  1  0
 21 32  1  0
M  CHG  1  11  -1
M  END
>  <UniqueID>  (55) 
54

>  <SMILES>  (55) 
N#CCc1ccc2cc(C([NH-])=O)n(C(=O)CC(N)=O)c2c1

>  <Energy>  (55) 
66.90287156480231

>  <Genealogy>  (55) 
N#CCc1ccc2cc(C([NH-])=O)n(C(=O)CC(N)=O)c2c1 (protonated)
N#CCc1ccc2cc(C([NH-])=O)n(C(=O)CC(N)=O)c2c1 (3D coordinates assigned)
N#CCc1ccc2cc(C([NH-])=O)n(C(=O)CC(N)=O)c2c1 (optimized conformer: 66.90287156480231 kcal/mol)

>  <smiles>  (55) 
N#CCc1ccc2cc(C(N)=O)n(C(=O)CC(N)=O)c2c1

>  <score_type>  (55) 
oracle

>  <origin>  (55) 
adg

>  <m_score__min__energy>  (55) 
-7.04

>  <m_primary>  (55) 
energy

$$$$
55:0
     RDKit          3D

 42 43  0  0  0  0  0  0  0  0999 V2000
  145.5050  153.0120  134.2070 N   0  0  0  0  0  0  0  0  0  0  0  0
  144.5570  153.1140  133.1440 C   0  0  0  0  0  0  0  0  0  0  0  0
  144.7090  152.4080  132.1120 O   0  0  0  0  0  0  0  0  0  0  0  0
  143.3730  153.9900  133.2540 C   0  0  0  0  0  0  0  0  0  0  0  0
  142.1110  153.6280  132.7920 C   0  0  0  0  0  0  0  0  0  0  0  0
  141.2740  154.6460  133.1850 C   0  0  0  0  0  0  0  0  0  0  0  0
  139.9070  154.8080  132.9830 C   0  0  0  0  0  0  0  0  0  0  0  0
  139.3020  155.9750  133.4790 C   0  0  0  0  0  0  0  0  0  0  0  0
  140.0620  156.9440  134.1830 C   0  0  0  0  0  0  0  0  0  0  0  0
  139.4160  158.2210  134.6560 C   0  0  0  0  0  0  0  0  0  0  0  0
  138.8750  158.0560  135.9190 F   0  0  0  0  0  0  0  0  0  0  0  0
  140.3670  159.2220  134.7000 F   0  0  0  0  0  0  0  0  0  0  0  0
  138.3980  158.6020  133.7970 F   0  0  0  0  0  0  0  0  0  0  0  0
  141.4530  156.7490  134.3510 C   0  0  0  0  0  0  0  0  0  0  0  0
  142.0280  155.5770  133.8490 C   0  0  0  0  0  0  0  0  0  0  0  0
  143.3260  155.1980  133.8850 N   0  0  0  0  0  0  0  0  0  0  0  0
  144.4200  155.9740  134.4060 C   0  0  0  0  0  0  0  0  0  0  0  0
  145.0490  155.5640  135.4180 O   0  0  0  0  0  0  0  0  0  0  0  0
  144.8080  157.2920  133.7900 C   0  0  0  0  0  0  0  0  0  0  0  0
  146.2540  157.2860  133.2920 C   0  0  0  0  0  0  0  0  0  0  0  0
  146.8210  155.6230  132.9610 S   0  0  0  0  0  0  0  0  0  0  0  0
  145.9290  154.8970  131.7350 O   0  0  0  0  0  0  0  0  0  0  0  0
  148.5770  155.5610  132.6290 C   0  0  0  0  0  0  0  0  0  0  0  0
  149.0500  154.1550  132.2470 C   0  0  0  0  0  0  0  0  0  0  0  0
  148.4200  152.8830  133.3950 S   0  0  0  0  0  0  0  0  0  0  0  0
  147.4070  152.1610  132.2090 O   0  0  0  0  0  0  0  0  0  0  0  0
  146.3590  152.4240  134.0920 H   0  0  0  0  0  0  0  0  0  0  0  0
  145.3250  153.4540  135.1360 H   0  0  0  0  0  0  0  0  0  0  0  0
  141.8406  152.7208  132.2318 H   0  0  0  0  0  0  0  0  0  0  0  0
  139.3181  154.0460  132.4514 H   0  0  0  0  0  0  0  0  0  0  0  0
  138.2261  156.1392  133.3195 H   0  0  0  0  0  0  0  0  0  0  0  0
  142.0685  157.5021  134.8648 H   0  0  0  0  0  0  0  0  0  0  0  0
  144.1403  157.4976  132.9403 H   0  0  0  0  0  0  0  0  0  0  0  0
  144.7173  158.0691  134.5632 H   0  0  0  0  0  0  0  0  0  0  0  0
  146.3164  157.8767  132.3662 H   0  0  0  0  0  0  0  0  0  0  0  0
  146.8924  157.7207  134.0752 H   0  0  0  0  0  0  0  0  0  0  0  0
  146.1940  153.9450  131.7540 H   0  0  0  0  0  0  0  0  0  0  0  0
  148.8042  156.2475  131.8001 H   0  0  0  0  0  0  0  0  0  0  0  0
  149.1029  155.8530  133.5500 H   0  0  0  0  0  0  0  0  0  0  0  0
  148.6939  153.9245  131.2321 H   0  0  0  0  0  0  0  0  0  0  0  0
  150.1488  154.1420  132.2969 H   0  0  0  0  0  0  0  0  0  0  0  0
  146.8430  152.9040  131.8750 H   0  0  0  0  0  0  0  0  0  0  0  0
  1  2  1  0
  2  3  2  0
  2  4  1  0
  4  5  2  0
  5  6  1  0
  6  7  2  0
  7  8  1  0
  8  9  2  0
  9 10  1  0
 10 11  1  0
 10 12  1  0
 10 13  1  0
  9 14  1  0
 14 15  2  0
 15 16  1  0
 16 17  1  0
 17 18  2  0
 17 19  1  0
 19 20  1  0
 20 21  1  0
 21 22  1  6
 21 23  1  0
 23 24  1  0
 24 25  1  0
 25 26  1  0
 16  4  1  0
 15  6  1  0
  1 27  1  0
  1 28  1  0
  5 29  1  0
  7 30  1  0
  8 31  1  0
 14 32  1  0
 19 33  1  0
 19 34  1  0
 20 35  1  0
 20 36  1  0
 22 37  1  0
 23 38  1  0
 23 39  1  0
 24 40  1  0
 24 41  1  0
 26 42  1  0
M  CHG  1  21   1
M  END
>  <UniqueID>  (56) 
55

>  <SMILES>  (56) 
NC(=O)c1cc2ccc(C(F)(F)F)cc2n1C(=O)CC[S@@+](O)CCSO

>  <Energy>  (56) 
70.24062268254043

>  <Genealogy>  (56) 
NC(=O)c1cc2ccc(C(F)(F)F)cc2n1C(=O)CC[S+](O)CCSO (protonated)
NC(=O)c1cc2ccc(C(F)(F)F)cc2n1C(=O)CC[S@@+](O)CCSO (chirality)
NC(=O)c1cc2ccc(C(F)(F)F)cc2n1C(=O)CC[S@@+](O)CCSO (3D coordinates assigned)
NC(=O)c1cc2ccc(C(F)(F)F)cc2n1C(=O)CC[S@@+](O)CCSO (optimized conformer: 70.24062268254043 kcal/mol)

>  <smiles>  (56) 
NC(=O)c1cc2ccc(C(F)(F)F)cc2n1C(=O)CC[S+]([O-])CCSO

>  <score_type>  (56) 
oracle

>  <origin>  (56) 
adg

>  <m_score__min__energy>  (56) 
-7.21

>  <m_primary>  (56) 
energy

$$$$
56:0
     RDKit          3D

 35 37  0  0  0  0  0  0  0  0999 V2000
  145.8060  161.2290  133.7500 N   0  0  0  0  0  0  0  0  0  0  0  0
  144.8950  160.1440  133.5990 C   0  0  0  0  0  0  0  0  0  0  0  0
  143.6580  160.3770  133.5460 O   0  0  0  0  0  0  0  0  0  0  0  0
  145.4060  158.7600  133.5070 C   0  0  0  0  0  0  0  0  0  0  0  0
  144.6660  157.6280  133.8470 C   0  0  0  0  0  0  0  0  0  0  0  0
  145.5160  156.5640  133.6420 C   0  0  0  0  0  0  0  0  0  0  0  0
  145.3170  155.2020  133.8490 C   0  0  0  0  0  0  0  0  0  0  0  0
  146.3880  154.3310  133.5830 C   0  0  0  0  0  0  0  0  0  0  0  0
  147.6300  154.8300  133.1110 C   0  0  0  0  0  0  0  0  0  0  0  0
  148.7890  153.8940  132.8850 C   0  0  0  0  0  0  0  0  0  0  0  0
  149.9290  154.6010  132.5430 F   0  0  0  0  0  0  0  0  0  0  0  0
  149.0590  153.1660  134.0310 F   0  0  0  0  0  0  0  0  0  0  0  0
  148.4750  153.0210  131.8600 F   0  0  0  0  0  0  0  0  0  0  0  0
  147.8000  156.2240  132.9440 C   0  0  0  0  0  0  0  0  0  0  0  0
  146.7120  157.0620  133.1970 C   0  0  0  0  0  0  0  0  0  0  0  0
  146.6530  158.4050  133.0930 N   0  0  0  0  0  0  0  0  0  0  0  0
  147.7160  159.2740  132.6770 C   0  0  0  0  0  0  0  0  0  0  0  0
  148.3040  159.9770  133.5420 O   0  0  0  0  0  0  0  0  0  0  0  0
  148.1730  159.3500  131.2330 C   0  0  1  0  0  0  0  0  0  0  0  0
  148.0850  160.7600  130.7000 C   0  0  0  0  0  0  0  0  0  0  0  0
  149.5220  161.2650  130.7480 C   0  0  0  0  0  0  0  0  0  0  0  0
  150.3760  160.2230  131.1610 O   0  0  0  0  0  0  0  0  0  0  0  0
  149.6470  159.0290  131.0330 C   0  0  0  0  0  0  0  0  0  0  0  0
  146.6370  161.3220  133.1250 H   0  0  0  0  0  0  0  0  0  0  0  0
  143.6258  157.5925  134.2029 H   0  0  0  0  0  0  0  0  0  0  0  0
  144.3511  154.8188  134.2098 H   0  0  0  0  0  0  0  0  0  0  0  0
  146.2619  153.2500  133.7426 H   0  0  0  0  0  0  0  0  0  0  0  0
  148.7668  156.6385  132.6223 H   0  0  0  0  0  0  0  0  0  0  0  0
  147.5168  158.6251  130.7290 H   0  0  0  0  0  0  0  0  0  0  0  0
  147.7037  160.7645  129.6682 H   0  0  0  0  0  0  0  0  0  0  0  0
  147.3962  161.3896  131.2824 H   0  0  0  0  0  0  0  0  0  0  0  0
  149.8224  161.6097  129.7475 H   0  0  0  0  0  0  0  0  0  0  0  0
  149.5922  162.0992  131.4616 H   0  0  0  0  0  0  0  0  0  0  0  0
  149.8029  158.6028  130.0310 H   0  0  0  0  0  0  0  0  0  0  0  0
  149.9820  158.2963  131.7820 H   0  0  0  0  0  0  0  0  0  0  0  0
  1  2  1  0
  2  3  2  0
  2  4  1  0
  4  5  2  0
  5  6  1  0
  6  7  2  0
  7  8  1  0
  8  9  2  0
  9 10  1  0
 10 11  1  0
 10 12  1  0
 10 13  1  0
  9 14  1  0
 14 15  2  0
 15 16  1  0
 16 17  1  0
 17 18  2  0
 17 19  1  0
 19 20  1  0
 20 21  1  0
 21 22  1  0
 22 23  1  0
 16  4  1  0
 23 19  1  0
 15  6  1  0
  1 24  1  0
  5 25  1  0
  7 26  1  0
  8 27  1  0
 14 28  1  0
 19 29  1  6
 20 30  1  0
 20 31  1  0
 21 32  1  0
 21 33  1  0
 23 34  1  0
 23 35  1  0
M  CHG  1   1  -1
M  END
>  <UniqueID>  (57) 
56

>  <SMILES>  (57) 
[NH-]C(=O)c1cc2ccc(C(F)(F)F)cc2n1C(=O)[C@H]1CCOC1

>  <Energy>  (57) 
78.38427415499721

>  <Genealogy>  (57) 
[NH-]C(=O)c1cc2ccc(C(F)(F)F)cc2n1C(=O)C1CCOC1 (protonated)
[NH-]C(=O)c1cc2ccc(C(F)(F)F)cc2n1C(=O)[C@H]1CCOC1 (chirality)
[NH-]C(=O)c1cc2ccc(C(F)(F)F)cc2n1C(=O)[C@H]1CCOC1 (3D coordinates assigned)
[NH-]C(=O)c1cc2ccc(C(F)(F)F)cc2n1C(=O)[C@H]1CCOC1 (nonaromatic ring conformer: 78.38427415499721 kcal/mol)

>  <smiles>  (57) 
NC(=O)c1cc2ccc(C(F)(F)F)cc2n1C(=O)C1CCOC1

>  <score_type>  (57) 
oracle

>  <origin>  (57) 
adg

>  <m_score__min__energy>  (57) 
-6.6299999999999999

>  <m_primary>  (57) 
energy

$$$$
57:0
     RDKit          3D

 51 53  0  0  0  0  0  0  0  0999 V2000
  147.8260  159.3350  132.8140 C   0  0  0  0  0  0  0  0  0  0  0  0
  146.5760  158.6580  133.2710 C   0  0  0  0  0  0  0  0  0  0  0  0
  145.3610  159.1120  133.0700 O   0  0  0  0  0  0  0  0  0  0  0  0
  144.5550  158.2340  133.6210 C   0  0  0  0  0  0  0  0  0  0  0  0
  143.3010  158.3400  133.6210 O   0  0  0  0  0  0  0  0  0  0  0  0
  145.2000  157.2300  134.1730 O   0  0  0  0  0  0  0  0  0  0  0  0
  146.4750  157.4720  133.9740 C   0  0  0  0  0  0  0  0  0  0  0  0
  147.5900  156.5830  134.4140 C   0  0  0  0  0  0  0  0  0  0  0  0
  147.1640  155.8180  135.5360 O   0  0  0  0  0  0  0  0  0  0  0  0
  146.6880  154.5080  135.4240 C   0  0  0  0  0  0  0  0  0  0  0  0
  146.9530  153.6600  136.3220 O   0  0  0  0  0  0  0  0  0  0  0  0
  145.9000  154.1300  134.2820 N   0  0  0  0  0  0  0  0  0  0  0  0
  146.5280  153.3600  133.2060 C   0  0  0  0  0  0  0  0  0  0  0  0
  144.4740  154.4770  134.2120 C   0  0  0  0  0  0  0  0  0  0  0  0
  143.7510  153.5280  133.2960 C   0  0  0  0  0  0  0  0  0  0  0  0
  142.6560  152.8280  133.6320 C   0  0  0  0  0  0  0  0  0  0  0  0
  141.9620  152.8690  134.9400 C   0  0  0  0  0  0  0  0  0  0  0  0
  141.3480  151.8630  135.3860 O   0  0  0  0  0  0  0  0  0  0  0  0
  141.9990  154.0710  135.7240 N   0  0  0  0  0  0  0  0  0  0  0  0
  142.5220  154.2340  136.9720 C   0  0  0  0  0  0  0  0  0  0  0  0
  143.2640  153.2120  137.7400 C   0  0  0  0  0  0  0  0  0  0  0  0
  144.6830  153.2940  137.8450 N   0  0  0  0  0  0  0  0  0  0  0  0
  142.6590  152.2520  138.2870 O   0  0  0  0  0  0  0  0  0  0  0  0
  142.3100  155.5370  137.4220 C   0  0  0  0  0  0  0  0  0  0  0  0
  141.6360  156.1700  136.4030 C   0  0  0  0  0  0  0  0  0  0  0  0
  141.1470  157.4700  136.3250 C   0  0  0  0  0  0  0  0  0  0  0  0
  140.4500  157.8430  135.1640 C   0  0  0  0  0  0  0  0  0  0  0  0
  140.2610  156.9200  134.1020 C   0  0  0  0  0  0  0  0  0  0  0  0
  139.4590  157.3100  132.8870 C   0  0  0  0  0  0  0  0  0  0  0  0
  138.2960  157.9360  133.2910 F   0  0  0  0  0  0  0  0  0  0  0  0
  140.1790  158.1740  132.0790 F   0  0  0  0  0  0  0  0  0  0  0  0
  139.1340  156.1920  132.1390 F   0  0  0  0  0  0  0  0  0  0  0  0
  140.7520  155.6010  134.2320 C   0  0  0  0  0  0  0  0  0  0  0  0
  141.4600  155.2630  135.3910 C   0  0  0  0  0  0  0  0  0  0  0  0
  148.4120  159.6524  133.6891 H   0  0  0  0  0  0  0  0  0  0  0  0
  148.4211  158.6359  132.2081 H   0  0  0  0  0  0  0  0  0  0  0  0
  147.5657  160.2154  132.2081 H   0  0  0  0  0  0  0  0  0  0  0  0
  147.8678  155.9070  133.5919 H   0  0  0  0  0  0  0  0  0  0  0  0
  148.4614  157.1937  134.6926 H   0  0  0  0  0  0  0  0  0  0  0  0
  147.1668  152.5768  133.6402 H   0  0  0  0  0  0  0  0  0  0  0  0
  145.7484  152.8948  132.5848 H   0  0  0  0  0  0  0  0  0  0  0  0
  147.1405  154.0301  132.5848 H   0  0  0  0  0  0  0  0  0  0  0  0
  144.0354  154.4147  135.2188 H   0  0  0  0  0  0  0  0  0  0  0  0
  144.3731  155.4998  133.8201 H   0  0  0  0  0  0  0  0  0  0  0  0
  144.1478  153.3984  132.2783 H   0  0  0  0  0  0  0  0  0  0  0  0
  142.2349  152.1619  132.8646 H   0  0  0  0  0  0  0  0  0  0  0  0
  145.1980  154.1320  137.4940 H   0  0  0  0  0  0  0  0  0  0  0  0
  142.6166  155.9673  138.3868 H   0  0  0  0  0  0  0  0  0  0  0  0
  141.3015  158.1840  137.1474 H   0  0  0  0  0  0  0  0  0  0  0  0
  140.0458  158.8623  135.0766 H   0  0  0  0  0  0  0  0  0  0  0  0
  140.5815  154.8569  133.4400 H   0  0  0  0  0  0  0  0  0  0  0  0
  1  2  1  0
  2  3  1  0
  3  4  1  0
  4  5  2  0
  4  6  1  0
  6  7  1  0
  7  8  1  0
  8  9  1  0
  9 10  1  0
 10 11  2  0
 10 12  1  0
 12 13  1  0
 12 14  1  0
 14 15  1  0
 15 16  2  3
 16 17  1  0
 17 18  2  0
 17 19  1  0
 19 20  1  0
 20 21  1  0
 21 22  1  0
 21 23  2  0
 20 24  2  0
 24 25  1  0
 25 26  2  0
 26 27  1  0
 27 28  2  0
 28 29  1  0
 29 30  1  0
 29 31  1  0
 29 32  1  0
 28 33  1  0
 33 34  2  0
  7  2  2  0
 34 19  1  0
 34 25  1  0
  1 35  1  0
  1 36  1  0
  1 37  1  0
  8 38  1  0
  8 39  1  0
 13 40  1  0
 13 41  1  0
 13 42  1  0
 14 43  1  0
 14 44  1  0
 15 45  1  0
 16 46  1  0
 22 47  1  0
 24 48  1  0
 26 49  1  0
 27 50  1  0
 33 51  1  0
M  CHG  1  22  -1
M  END
>  <UniqueID>  (58) 
57

>  <SMILES>  (58) 
Cc1oc(=O)oc1COC(=O)N(C)CC=CC(=O)n1c(C([NH-])=O)cc2ccc(C(F)(F)F)cc21

>  <Energy>  (58) 
119.23730033091066

>  <Genealogy>  (58) 
Cc1oc(=O)oc1COC(=O)N(C)CC=CC(=O)n1c(C([NH-])=O)cc2ccc(C(F)(F)F)cc21 (protonated)
Cc1oc(=O)oc1COC(=O)N(C)CC=CC(=O)n1c(C([NH-])=O)cc2ccc(C(F)(F)F)cc21 (3D coordinates assigned)
Cc1oc(=O)oc1COC(=O)N(C)CC=CC(=O)n1c(C([NH-])=O)cc2ccc(C(F)(F)F)cc21 (optimized conformer: 119.23730033091066 kcal/mol)

>  <smiles>  (58) 
Cc1oc(=O)oc1COC(=O)N(C)CC=CC(=O)n1c(C(N)=O)cc2ccc(C(F)(F)F)cc21

>  <score_type>  (58) 
oracle

>  <origin>  (58) 
adg

>  <m_score__min__energy>  (58) 
-7.2699999999999996

>  <m_primary>  (58) 
energy

$$$$
58:0
     RDKit          3D

 42 44  0  0  0  0  0  0  0  0999 V2000
  146.5560  155.8080  132.5450 C   0  0  0  0  0  0  0  0  0  0  0  0
  147.1630  156.9430  133.3070 C   0  0  0  0  0  0  0  0  0  0  0  0
  148.2530  156.7620  133.9130 O   0  0  0  0  0  0  0  0  0  0  0  0
  146.5380  158.2380  133.3320 N   0  0  0  0  0  0  0  0  0  0  0  0
  147.1110  159.4510  133.0910 C   0  0  0  0  0  0  0  0  0  0  0  0
  148.4750  159.6770  132.5730 C   0  0  0  0  0  0  0  0  0  0  0  0
  149.5920  158.9580  133.0960 N   0  0  0  0  0  0  0  0  0  0  0  0
  148.6480  160.4790  131.6190 O   0  0  0  0  0  0  0  0  0  0  0  0
  146.2050  160.4800  133.3400 C   0  0  0  0  0  0  0  0  0  0  0  0
  145.0430  159.8540  133.7300 C   0  0  0  0  0  0  0  0  0  0  0  0
  143.8140  160.3940  134.0980 C   0  0  0  0  0  0  0  0  0  0  0  0
  142.7930  159.5070  134.4750 C   0  0  0  0  0  0  0  0  0  0  0  0
  143.0190  158.1080  134.4910 C   0  0  0  0  0  0  0  0  0  0  0  0
  141.9030  157.1640  134.8560 C   0  0  0  0  0  0  0  0  0  0  0  0
  142.1630  155.7460  134.3270 C   0  0  0  0  0  0  0  0  0  0  0  0
  142.8680  154.8900  135.3460 C   0  0  0  0  0  0  0  0  0  0  0  0
  142.1400  154.1920  136.3190 C   0  0  0  0  0  0  0  0  0  0  0  0
  142.7870  153.4580  137.2620 N   0  0  0  0  0  0  0  0  0  0  0  0
  144.1420  153.3750  137.3020 C   0  0  0  0  0  0  0  0  0  0  0  0
  144.9230  154.0620  136.3580 C   0  0  0  0  0  0  0  0  0  0  0  0
  146.3980  153.9840  136.4010 C   0  0  0  0  0  0  0  0  0  0  0  0
  146.9730  152.9870  136.9120 O   0  0  0  0  0  0  0  0  0  0  0  0
  147.1730  155.0140  135.8770 O   0  0  0  0  0  0  0  0  0  0  0  0
  144.2680  154.8260  135.3770 C   0  0  0  0  0  0  0  0  0  0  0  0
  144.2780  157.5960  134.1050 C   0  0  0  0  0  0  0  0  0  0  0  0
  145.2710  158.5020  133.7170 C   0  0  0  0  0  0  0  0  0  0  0  0
  146.1580  155.0639  133.2506 H   0  0  0  0  0  0  0  0  0  0  0  0
  145.7398  156.1863  131.9120 H   0  0  0  0  0  0  0  0  0  0  0  0
  147.3238  155.3392  131.9120 H   0  0  0  0  0  0  0  0  0  0  0  0
  149.4610  158.1680  133.7650 H   0  0  0  0  0  0  0  0  0  0  0  0
  150.5550  159.1620  132.7480 H   0  0  0  0  0  0  0  0  0  0  0  0
  146.3809  161.5617  133.2451 H   0  0  0  0  0  0  0  0  0  0  0  0
  143.6479  161.4814  134.0936 H   0  0  0  0  0  0  0  0  0  0  0  0
  141.8071  159.9022  134.7610 H   0  0  0  0  0  0  0  0  0  0  0  0
  141.8131  157.1249  135.9516 H   0  0  0  0  0  0  0  0  0  0  0  0
  140.9750  157.5364  134.3975 H   0  0  0  0  0  0  0  0  0  0  0  0
  141.2001  155.2782  134.0738 H   0  0  0  0  0  0  0  0  0  0  0  0
  142.8093  155.8247  133.4404 H   0  0  0  0  0  0  0  0  0  0  0  0
  141.0410  154.2384  136.3194 H   0  0  0  0  0  0  0  0  0  0  0  0
  144.6303  152.7667  138.0776 H   0  0  0  0  0  0  0  0  0  0  0  0
  144.8573  155.3769  134.6292 H   0  0  0  0  0  0  0  0  0  0  0  0
  144.4724  156.5133  134.1094 H   0  0  0  0  0  0  0  0  0  0  0  0
  1  2  1  0
  2  3  2  0
  2  4  1  0
  4  5  1  0
  5  6  1  0
  6  7  1  0
  6  8  2  0
  5  9  2  0
  9 10  1  0
 10 11  2  0
 11 12  1  0
 12 13  2  0
 13 14  1  0
 14 15  1  0
 15 16  1  0
 16 17  2  0
 17 18  1  0
 18 19  2  0
 19 20  1  0
 20 21  1  0
 21 22  2  0
 21 23  1  0
 20 24  2  0
 13 25  1  0
 25 26  2  0
 26  4  1  0
 26 10  1  0
 24 16  1  0
  1 27  1  0
  1 28  1  0
  1 29  1  0
  7 30  1  0
  7 31  1  0
  9 32  1  0
 11 33  1  0
 12 34  1  0
 14 35  1  0
 14 36  1  0
 15 37  1  0
 15 38  1  0
 17 39  1  0
 19 40  1  0
 24 41  1  0
 25 42  1  0
M  CHG  1  23  -1
M  END
>  <UniqueID>  (59) 
58

>  <SMILES>  (59) 
CC(=O)n1c(C(N)=O)cc2ccc(CCc3cncc(C(=O)[O-])c3)cc21

>  <Energy>  (59) 
81.14974103766143

>  <Genealogy>  (59) 
CC(=O)n1c(C(N)=O)cc2ccc(CCc3cncc(C(=O)[O-])c3)cc21 (protonated)
CC(=O)n1c(C(N)=O)cc2ccc(CCc3cncc(C(=O)[O-])c3)cc21 (3D coordinates assigned)
CC(=O)n1c(C(N)=O)cc2ccc(CCc3cncc(C(=O)[O-])c3)cc21 (optimized conformer: 81.14974103766143 kcal/mol)

>  <smiles>  (59) 
CC(=O)n1c(C(N)=O)cc2ccc(CCc3cncc(C(=O)O)c3)cc21

>  <score_type>  (59) 
oracle

>  <origin>  (59) 
adg

>  <m_score__min__energy>  (59) 
-8.3200000000000003

>  <m_primary>  (59) 
energy

$$$$
59:0
     RDKit          3D

 45 47  0  0  0  0  0  0  0  0999 V2000
  138.6110  160.1500  130.4200 C   0  0  0  0  0  0  0  0  0  0  0  0
  138.6520  159.3320  131.7050 C   0  0  0  0  0  0  0  0  0  0  0  0
  139.8510  158.5620  131.7780 O   0  0  0  0  0  0  0  0  0  0  0  0
  140.6460  158.4690  132.9300 C   0  0  0  0  0  0  0  0  0  0  0  0
  140.6290  159.3800  133.7980 O   0  0  0  0  0  0  0  0  0  0  0  0
  141.5270  157.2750  133.1280 C   0  0  0  0  0  0  0  0  0  0  0  0
  142.9920  157.5770  132.7730 C   0  0  0  0  0  0  0  0  0  0  0  0
  143.7300  158.3160  133.8620 C   0  0  0  0  0  0  0  0  0  0  0  0
  143.2170  158.4040  135.0140 O   0  0  0  0  0  0  0  0  0  0  0  0
  145.0210  158.9080  133.6120 N   0  0  0  0  0  0  0  0  0  0  0  0
  145.3510  160.2310  133.6480 C   0  0  0  0  0  0  0  0  0  0  0  0
  144.4160  161.3310  133.8900 C   0  0  0  0  0  0  0  0  0  0  0  0
  143.0170  161.1140  133.7370 N   0  0  0  0  0  0  0  0  0  0  0  0
  144.8380  162.4430  134.3130 O   0  0  0  0  0  0  0  0  0  0  0  0
  146.7020  160.4180  133.3880 C   0  0  0  0  0  0  0  0  0  0  0  0
  147.2050  159.1540  133.1820 C   0  0  0  0  0  0  0  0  0  0  0  0
  148.5080  158.7470  132.9160 C   0  0  0  0  0  0  0  0  0  0  0  0
  148.7570  157.3680  132.8010 C   0  0  0  0  0  0  0  0  0  0  0  0
  147.7090  156.4220  132.9700 C   0  0  0  0  0  0  0  0  0  0  0  0
  147.9880  154.9650  132.8490 C   0  0  0  0  0  0  0  0  0  0  0  0
  146.9580  154.0150  132.9890 C   0  0  0  0  0  0  0  0  0  0  0  0
  147.2410  152.6520  132.8640 C   0  0  0  0  0  0  0  0  0  0  0  0
  148.5510  152.2450  132.6020 C   0  0  0  0  0  0  0  0  0  0  0  0
  149.5390  153.1680  132.4780 N   0  0  0  0  0  0  0  0  0  0  0  0
  149.2920  154.5010  132.5940 C   0  0  0  0  0  0  0  0  0  0  0  0
  146.3960  156.8780  133.2450 C   0  0  0  0  0  0  0  0  0  0  0  0
  146.1740  158.2580  133.3320 C   0  0  0  0  0  0  0  0  0  0  0  0
  138.5573  161.2203  130.6682 H   0  0  0  0  0  0  0  0  0  0  0  0
  139.5200  159.9551  129.8321 H   0  0  0  0  0  0  0  0  0  0  0  0
  137.7260  159.8651  129.8321 H   0  0  0  0  0  0  0  0  0  0  0  0
  138.6079  160.0132  132.5676 H   0  0  0  0  0  0  0  0  0  0  0  0
  137.7918  158.6464  131.7139 H   0  0  0  0  0  0  0  0  0  0  0  0
  141.4734  156.9646  134.1819 H   0  0  0  0  0  0  0  0  0  0  0  0
  141.1726  156.4759  132.4602 H   0  0  0  0  0  0  0  0  0  0  0  0
  143.5092  156.6245  132.5852 H   0  0  0  0  0  0  0  0  0  0  0  0
  142.9848  158.2269  131.8855 H   0  0  0  0  0  0  0  0  0  0  0  0
  142.5530  160.2840  134.1690 H   0  0  0  0  0  0  0  0  0  0  0  0
  147.2513  161.3704  133.3541 H   0  0  0  0  0  0  0  0  0  0  0  0
  149.3187  159.4812  132.7992 H   0  0  0  0  0  0  0  0  0  0  0  0
  149.7751  157.0166  132.5775 H   0  0  0  0  0  0  0  0  0  0  0  0
  145.9298  154.3459  133.1969 H   0  0  0  0  0  0  0  0  0  0  0  0
  146.4392  151.9066  132.9710 H   0  0  0  0  0  0  0  0  0  0  0  0
  148.7827  151.1749  132.4959 H   0  0  0  0  0  0  0  0  0  0  0  0
  150.1170  155.2208  132.4878 H   0  0  0  0  0  0  0  0  0  0  0  0
  145.5705  156.1649  133.3868 H   0  0  0  0  0  0  0  0  0  0  0  0
  1  2  1  0
  2  3  1  0
  3  4  1  0
  4  5  2  0
  4  6  1  0
  6  7  1  0
  7  8  1  0
  8  9  2  0
  8 10  1  0
 10 11  1  0
 11 12  1  0
 12 13  1  0
 12 14  2  0
 11 15  2  0
 15 16  1  0
 16 17  2  0
 17 18  1  0
 18 19  2  0
 19 20  1  0
 20 21  2  0
 21 22  1  0
 22 23  2  0
 23 24  1  0
 24 25  2  0
 19 26  1  0
 26 27  2  0
 27 10  1  0
 27 16  1  0
 25 20  1  0
  1 28  1  0
  1 29  1  0
  1 30  1  0
  2 31  1  0
  2 32  1  0
  6 33  1  0
  6 34  1  0
  7 35  1  0
  7 36  1  0
 13 37  1  0
 15 38  1  0
 17 39  1  0
 18 40  1  0
 21 41  1  0
 22 42  1  0
 23 43  1  0
 25 44  1  0
 26 45  1  0
M  CHG  1  13  -1
M  END
>  <UniqueID>  (60) 
59

>  <SMILES>  (60) 
CCOC(=O)CCC(=O)n1c(C([NH-])=O)cc2ccc(-c3cccnc3)cc21

>  <Energy>  (60) 
90.20765677557455

>  <Genealogy>  (60) 
CCOC(=O)CCC(=O)n1c(C([NH-])=O)cc2ccc(-c3cccnc3)cc21 (protonated)
CCOC(=O)CCC(=O)n1c(C([NH-])=O)cc2ccc(-c3cccnc3)cc21 (3D coordinates assigned)
CCOC(=O)CCC(=O)n1c(C([NH-])=O)cc2ccc(-c3cccnc3)cc21 (optimized conformer: 90.20765677557455 kcal/mol)

>  <smiles>  (60) 
CCOC(=O)CCC(=O)n1c(C(N)=O)cc2ccc(-c3cccnc3)cc21

>  <score_type>  (60) 
oracle

>  <origin>  (60) 
adg

>  <m_score__min__energy>  (60) 
-7.9900000000000002

>  <m_primary>  (60) 
energy

$$$$
60:0
     RDKit          3D

 39 40  0  0  0  0  0  0  0  0999 V2000
  141.3670  151.7290  132.9250 C   0  0  0  0  0  0  0  0  0  0  0  0
  142.8360  151.3450  132.9800 C   0  0  0  0  0  0  0  0  0  0  0  0
  143.6320  152.5190  133.0980 O   0  0  0  0  0  0  0  0  0  0  0  0
  144.9030  152.6300  132.5250 C   0  0  0  0  0  0  0  0  0  0  0  0
  145.6390  151.6090  132.4080 O   0  0  0  0  0  0  0  0  0  0  0  0
  145.3660  153.9180  132.0670 N   0  0  1  0  0  0  0  0  0  0  0  0
  144.3610  154.5010  131.1600 C   0  0  0  0  0  0  0  0  0  0  0  0
  145.6550  154.7870  133.1940 C   0  0  0  0  0  0  0  0  0  0  0  0
  145.1080  154.5790  134.3130 O   0  0  0  0  0  0  0  0  0  0  0  0
  146.6450  155.8250  133.0970 N   0  0  0  0  0  0  0  0  0  0  0  0
  147.9690  155.6840  132.8110 C   0  0  0  0  0  0  0  0  0  0  0  0
  148.6810  154.4020  132.6110 C   0  0  0  0  0  0  0  0  0  0  0  0
  147.9750  153.1650  132.5840 N   0  0  0  0  0  0  0  0  0  0  0  0
  149.9340  154.3990  132.4760 O   0  0  0  0  0  0  0  0  0  0  0  0
  148.5890  156.9320  132.7550 C   0  0  0  0  0  0  0  0  0  0  0  0
  147.5930  157.8460  133.0120 C   0  0  0  0  0  0  0  0  0  0  0  0
  147.6400  159.2360  133.0570 C   0  0  0  0  0  0  0  0  0  0  0  0
  146.4440  159.9270  133.3170 C   0  0  0  0  0  0  0  0  0  0  0  0
  145.2300  159.2240  133.5340 C   0  0  0  0  0  0  0  0  0  0  0  0
  143.9480  159.9850  133.7520 C   0  0  0  0  0  0  0  0  0  0  0  0
  142.9260  159.4590  132.9800 F   0  0  0  0  0  0  0  0  0  0  0  0
  144.1380  161.3090  133.4040 F   0  0  0  0  0  0  0  0  0  0  0  0
  143.5640  159.9180  135.0800 F   0  0  0  0  0  0  0  0  0  0  0  0
  145.2200  157.8130  133.4530 C   0  0  0  0  0  0  0  0  0  0  0  0
  146.4280  157.1520  133.2100 C   0  0  0  0  0  0  0  0  0  0  0  0
  140.9762  151.8312  133.9481 H   0  0  0  0  0  0  0  0  0  0  0  0
  141.2578  152.6859  132.3935 H   0  0  0  0  0  0  0  0  0  0  0  0
  140.8035  150.9480  132.3935 H   0  0  0  0  0  0  0  0  0  0  0  0
  143.0121  150.6944  133.8493 H   0  0  0  0  0  0  0  0  0  0  0  0
  143.1086  150.8098  132.0584 H   0  0  0  0  0  0  0  0  0  0  0  0
  146.2520  153.7800  131.5290 H   0  0  0  0  0  0  0  0  0  0  0  0
  143.5590  154.9663  131.7519 H   0  0  0  0  0  0  0  0  0  0  0  0
  144.8377  155.2628  130.5256 H   0  0  0  0  0  0  0  0  0  0  0  0
  143.9363  153.7090  130.5256 H   0  0  0  0  0  0  0  0  0  0  0  0
  147.2560  152.9710  131.8530 H   0  0  0  0  0  0  0  0  0  0  0  0
  149.6491  157.1413  132.5491 H   0  0  0  0  0  0  0  0  0  0  0  0
  148.5838  159.7771  132.8942 H   0  0  0  0  0  0  0  0  0  0  0  0
  146.4488  161.0264  133.3528 H   0  0  0  0  0  0  0  0  0  0  0  0
  144.2843  157.2483  133.5781 H   0  0  0  0  0  0  0  0  0  0  0  0
  1  2  1  0
  2  3  1  0
  3  4  1  0
  4  5  2  0
  4  6  1  0
  6  7  1  0
  6  8  1  0
  8  9  2  0
  8 10  1  0
 10 11  1  0
 11 12  1  0
 12 13  1  0
 12 14  2  0
 11 15  2  0
 15 16  1  0
 16 17  2  0
 17 18  1  0
 18 19  2  0
 19 20  1  0
 20 21  1  0
 20 22  1  0
 20 23  1  0
 19 24  1  0
 24 25  2  0
 25 10  1  0
 25 16  1  0
  1 26  1  0
  1 27  1  0
  1 28  1  0
  2 29  1  0
  2 30  1  0
  6 31  1  6
  7 32  1  0
  7 33  1  0
  7 34  1  0
 13 35  1  0
 15 36  1  0
 17 37  1  0
 18 38  1  0
 24 39  1  0
M  CHG  2   6   1  13  -1
M  END
>  <UniqueID>  (61) 
60

>  <SMILES>  (61) 
CCOC(=O)[NH+](C)C(=O)n1c(C([NH-])=O)cc2ccc(C(F)(F)F)cc21

>  <Energy>  (61) 
78.74741854310979

>  <Genealogy>  (61) 
CCOC(=O)[NH+](C)C(=O)n1c(C([NH-])=O)cc2ccc(C(F)(F)F)cc21 (protonated)
CCOC(=O)[NH+](C)C(=O)n1c(C([NH-])=O)cc2ccc(C(F)(F)F)cc21 (3D coordinates assigned)
CCOC(=O)[NH+](C)C(=O)n1c(C([NH-])=O)cc2ccc(C(F)(F)F)cc21 (optimized conformer: 78.74741854310979 kcal/mol)

>  <smiles>  (61) 
CCOC(=O)N(C)C(=O)n1c(C(N)=O)cc2ccc(C(F)(F)F)cc21

>  <score_type>  (61) 
oracle

>  <origin>  (61) 
adg

>  <m_score__min__energy>  (61) 
-5.8399999999999999

>  <m_primary>  (61) 
energy

$$$$
61:0
     RDKit          3D

 41 42  0  0  0  0  0  0  0  0999 V2000
  149.5530  160.7100  130.1870 C   0  0  0  0  0  0  0  0  0  0  0  0
  148.3690  160.9210  131.1240 C   0  0  0  0  0  0  0  0  0  0  0  0
  148.0710  159.6640  131.8940 C   0  0  0  0  0  0  0  0  0  0  0  0
  149.1210  158.7800  132.2500 C   0  0  0  0  0  0  0  0  0  0  0  0
  148.8590  157.6220  133.0030 C   0  0  0  0  0  0  0  0  0  0  0  0
  147.5440  157.3830  133.3950 C   0  0  0  0  0  0  0  0  0  0  0  0
  147.0090  156.3520  134.1350 C   0  0  0  0  0  0  0  0  0  0  0  0
  145.6440  156.6290  134.2260 C   0  0  0  0  0  0  0  0  0  0  0  0
  144.6450  155.7560  134.8880 C   0  0  0  0  0  0  0  0  0  0  0  0
  143.2430  156.0130  134.7680 N   0  0  0  0  0  0  0  0  0  0  0  0
  145.0260  154.7730  135.5780 O   0  0  0  0  0  0  0  0  0  0  0  0
  145.3570  157.7910  133.5760 N   0  0  0  0  0  0  0  0  0  0  0  0
  144.0780  158.4250  133.4260 C   0  0  0  0  0  0  0  0  0  0  0  0
  143.2850  157.9980  132.5420 O   0  0  0  0  0  0  0  0  0  0  0  0
  143.7020  159.5460  134.2510 N   0  0  0  0  0  0  0  0  0  0  0  0
  144.4190  160.8160  134.0930 C   0  0  0  0  0  0  0  0  0  0  0  0
  142.6600  159.4130  135.2810 C   0  0  0  0  0  0  0  0  0  0  0  0
  141.2820  159.2800  134.6290 C   0  0  0  0  0  0  0  0  0  0  0  0
  140.5040  158.1700  135.2640 C   0  0  0  0  0  0  0  0  0  0  0  0
  139.4930  158.4300  135.9690 O   0  0  0  0  0  0  0  0  0  0  0  0
  140.9190  156.8540  135.1140 O   0  0  0  0  0  0  0  0  0  0  0  0
  146.5230  158.2320  133.0630 C   0  0  0  0  0  0  0  0  0  0  0  0
  146.7510  159.3900  132.3140 C   0  0  0  0  0  0  0  0  0  0  0  0
  150.4653  160.5474  130.7797 H   0  0  0  0  0  0  0  0  0  0  0  0
  149.3664  159.8310  129.5526 H   0  0  0  0  0  0  0  0  0  0  0  0
  149.6816  161.5994  129.5526 H   0  0  0  0  0  0  0  0  0  0  0  0
  148.6072  161.7296  131.8307 H   0  0  0  0  0  0  0  0  0  0  0  0
  147.4859  161.1866  130.5243 H   0  0  0  0  0  0  0  0  0  0  0  0
  150.1508  159.0025  131.9339 H   0  0  0  0  0  0  0  0  0  0  0  0
  149.6671  156.9266  133.2740 H   0  0  0  0  0  0  0  0  0  0  0  0
  147.5443  155.4920  134.5637 H   0  0  0  0  0  0  0  0  0  0  0  0
  142.5570  155.3970  135.2580 H   0  0  0  0  0  0  0  0  0  0  0  0
  142.8730  156.7770  134.1630 H   0  0  0  0  0  0  0  0  0  0  0  0
  144.6531  161.2307  135.0846 H   0  0  0  0  0  0  0  0  0  0  0  0
  145.3529  160.6432  133.5380 H   0  0  0  0  0  0  0  0  0  0  0  0
  143.7887  161.5264  133.5380 H   0  0  0  0  0  0  0  0  0  0  0  0
  142.8620  158.5182  135.8880 H   0  0  0  0  0  0  0  0  0  0  0  0
  142.6695  160.3103  135.9173 H   0  0  0  0  0  0  0  0  0  0  0  0
  140.7311  160.2241  134.7521 H   0  0  0  0  0  0  0  0  0  0  0  0
  141.4153  159.0539  133.5608 H   0  0  0  0  0  0  0  0  0  0  0  0
  145.9245  160.0694  132.0587 H   0  0  0  0  0  0  0  0  0  0  0  0
  1  2  1  0
  2  3  1  0
  3  4  2  0
  4  5  1  0
  5  6  2  0
  6  7  1  0
  7  8  2  0
  8  9  1  0
  9 10  1  0
  9 11  2  0
  8 12  1  0
 12 13  1  0
 13 14  2  0
 13 15  1  0
 15 16  1  0
 15 17  1  0
 17 18  1  0
 18 19  1  0
 19 20  2  0
 19 21  1  0
 12 22  1  0
 22 23  2  0
 23  3  1  0
 22  6  1  0
  1 24  1  0
  1 25  1  0
  1 26  1  0
  2 27  1  0
  2 28  1  0
  4 29  1  0
  5 30  1  0
  7 31  1  0
 10 32  1  0
 10 33  1  0
 16 34  1  0
 16 35  1  0
 16 36  1  0
 17 37  1  0
 17 38  1  0
 18 39  1  0
 18 40  1  0
 23 41  1  0
M  CHG  1  21  -1
M  END
>  <UniqueID>  (62) 
61

>  <SMILES>  (62) 
CCc1ccc2cc(C(N)=O)n(C(=O)N(C)CCC(=O)[O-])c2c1

>  <Energy>  (62) 
70.63290007655198

>  <Genealogy>  (62) 
CCc1ccc2cc(C(N)=O)n(C(=O)N(C)CCC(=O)[O-])c2c1 (protonated)
CCc1ccc2cc(C(N)=O)n(C(=O)N(C)CCC(=O)[O-])c2c1 (3D coordinates assigned)
CCc1ccc2cc(C(N)=O)n(C(=O)N(C)CCC(=O)[O-])c2c1 (optimized conformer: 70.63290007655198 kcal/mol)

>  <smiles>  (62) 
CCc1ccc2cc(C(N)=O)n(C(=O)N(C)CCC(=O)O)c2c1

>  <score_type>  (62) 
oracle

>  <origin>  (62) 
adg

>  <m_score__min__energy>  (62) 
-6.5999999999999996

>  <m_primary>  (62) 
energy

$$$$
62:0
     RDKit          3D

 39 41  0  0  0  0  0  0  0  0999 V2000
  139.2130  156.0840  133.0870 C   0  0  0  0  0  0  0  0  0  0  0  0
  138.3670  157.0800  133.7530 N   0  0  0  0  0  0  0  0  0  0  0  0
  139.1760  158.1870  134.2910 C   0  0  1  0  0  0  0  0  0  0  0  0
  139.6410  157.8890  135.7180 C   0  0  0  0  0  0  0  0  0  0  0  0
  141.0110  158.5380  135.8430 C   0  0  0  0  0  0  0  0  0  0  0  0
  141.4900  158.7150  134.4800 N   0  0  0  0  0  0  0  0  0  0  0  0
  142.8280  159.1490  134.1430 C   0  0  0  0  0  0  0  0  0  0  0  0
  143.1210  160.5310  133.9790 C   0  0  0  0  0  0  0  0  0  0  0  0
  144.4190  160.9630  133.6590 C   0  0  0  0  0  0  0  0  0  0  0  0
  145.4080  159.9980  133.5030 C   0  0  0  0  0  0  0  0  0  0  0  0
  146.7410  160.1390  133.1930 C   0  0  0  0  0  0  0  0  0  0  0  0
  147.2510  158.8430  133.1740 C   0  0  0  0  0  0  0  0  0  0  0  0
  148.6400  158.5230  132.8060 C   0  0  0  0  0  0  0  0  0  0  0  0
  148.9310  157.4830  131.8730 N   0  0  0  0  0  0  0  0  0  0  0  0
  149.5860  159.1340  133.3680 O   0  0  0  0  0  0  0  0  0  0  0  0
  146.2710  157.9360  133.4400 N   0  0  0  0  0  0  0  0  0  0  0  0
  146.3550  156.5060  133.3250 C   0  0  0  0  0  0  0  0  0  0  0  0
  146.6250  155.9700  132.2200 O   0  0  0  0  0  0  0  0  0  0  0  0
  146.0450  155.4510  134.7560 S   0  0  0  0  0  0  0  0  0  0  0  0
  145.1480  158.6610  133.6430 C   0  0  0  0  0  0  0  0  0  0  0  0
  143.8690  158.2020  133.9730 C   0  0  0  0  0  0  0  0  0  0  0  0
  140.4670  158.3910  133.4960 C   0  0  0  0  0  0  0  0  0  0  0  0
  139.7293  155.4761  133.8445 H   0  0  0  0  0  0  0  0  0  0  0  0
  138.5875  155.4330  132.4585 H   0  0  0  0  0  0  0  0  0  0  0  0
  139.9566  156.5959  132.4585 H   0  0  0  0  0  0  0  0  0  0  0  0
  137.7290  157.4700  133.0190 H   0  0  0  0  0  0  0  0  0  0  0  0
  138.5246  159.0718  134.2391 H   0  0  0  0  0  0  0  0  0  0  0  0
  138.9422  158.3226  136.4485 H   0  0  0  0  0  0  0  0  0  0  0  0
  139.6820  156.8078  135.9164 H   0  0  0  0  0  0  0  0  0  0  0  0
  140.9295  159.5108  136.3501 H   0  0  0  0  0  0  0  0  0  0  0  0
  141.6997  157.9201  136.4379 H   0  0  0  0  0  0  0  0  0  0  0  0
  142.3189  161.2732  134.1047 H   0  0  0  0  0  0  0  0  0  0  0  0
  144.6461  162.0322  133.5356 H   0  0  0  0  0  0  0  0  0  0  0  0
  147.2869  161.0746  133.0013 H   0  0  0  0  0  0  0  0  0  0  0  0
  149.9150  157.3020  131.5790 H   0  0  0  0  0  0  0  0  0  0  0  0
  148.1850  156.8240  131.5600 H   0  0  0  0  0  0  0  0  0  0  0  0
  143.6744  157.1266  134.0983 H   0  0  0  0  0  0  0  0  0  0  0  0
  140.3493  159.2171  132.7792 H   0  0  0  0  0  0  0  0  0  0  0  0
  140.7318  157.4948  132.9158 H   0  0  0  0  0  0  0  0  0  0  0  0
  1  2  1  0
  2  3  1  0
  3  4  1  0
  4  5  1  0
  5  6  1  0
  6  7  1  0
  7  8  2  0
  8  9  1  0
  9 10  2  0
 10 11  1  0
 11 12  2  0
 12 13  1  0
 13 14  1  0
 13 15  2  0
 12 16  1  0
 16 17  1  0
 17 18  2  0
 17 19  1  0
 16 20  1  0
 20 21  2  0
  6 22  1  0
 22  3  1  0
 21  7  1  0
 20 10  1  0
  1 23  1  0
  1 24  1  0
  1 25  1  0
  2 26  1  0
  3 27  1  1
  4 28  1  0
  4 29  1  0
  5 30  1  0
  5 31  1  0
  8 32  1  0
  9 33  1  0
 11 34  1  0
 14 35  1  0
 14 36  1  0
 21 37  1  0
 22 38  1  0
 22 39  1  0
M  CHG  1  19  -1
M  END
>  <UniqueID>  (63) 
62

>  <SMILES>  (63) 
CN[C@H]1CCN(c2ccc3cc(C(N)=O)n(C(=O)[S-])c3c2)C1

>  <Energy>  (63) 
85.31474838731872

>  <Genealogy>  (63) 
CNC1CCN(c2ccc3cc(C(N)=O)n(C(=O)[S-])c3c2)C1 (protonated)
CN[C@H]1CCN(c2ccc3cc(C(N)=O)n(C(=O)[S-])c3c2)C1 (chirality)
CN[C@H]1CCN(c2ccc3cc(C(N)=O)n(C(=O)[S-])c3c2)C1 (3D coordinates assigned)
CN[C@H]1CCN(c2ccc3cc(C(N)=O)n(C(=O)[S-])c3c2)C1 (nonaromatic ring conformer: 85.31474838731872 kcal/mol)

>  <smiles>  (63) 
CNC1CCN(c2ccc3cc(C(N)=O)n(C(=O)S)c3c2)C1

>  <score_type>  (63) 
oracle

>  <origin>  (63) 
adg

>  <m_score__min__energy>  (63) 
-7.8799999999999999

>  <m_primary>  (63) 
energy

$$$$
63:0
     RDKit          3D

 43 45  0  0  0  0  0  0  0  0999 V2000
  140.0800  151.8290  132.7160 N   0  0  0  0  0  0  0  0  0  0  0  0
  141.2470  151.6670  133.5230 C   0  0  0  0  0  0  0  0  0  0  0  0
  141.3340  150.6640  134.2800 O   0  0  0  0  0  0  0  0  0  0  0  0
  142.3260  152.6800  133.5050 C   0  0  0  0  0  0  0  0  0  0  0  0
  143.6770  152.3680  133.3660 C   0  0  0  0  0  0  0  0  0  0  0  0
  144.3260  153.5790  133.3020 C   0  0  0  0  0  0  0  0  0  0  0  0
  145.6840  153.8610  133.1730 C   0  0  0  0  0  0  0  0  0  0  0  0
  146.0790  155.2090  133.1610 C   0  0  0  0  0  0  0  0  0  0  0  0
  145.1160  156.2360  133.2840 C   0  0  0  0  0  0  0  0  0  0  0  0
  145.5320  157.6130  133.2860 C   0  0  0  0  0  0  0  0  0  0  0  0
  145.8680  158.7700  133.2920 C   0  0  0  0  0  0  0  0  0  0  0  0
  146.2840  160.1810  133.2960 C   0  0  0  0  0  0  0  0  0  0  0  0
  147.7280  160.3450  133.0240 N   0  0  0  0  0  0  0  0  0  0  0  0
  148.6000  159.3980  133.7540 C   0  0  0  0  0  0  0  0  0  0  0  0
  148.8290  158.0710  133.0040 C   0  0  0  0  0  0  0  0  0  0  0  0
  148.9180  158.2260  131.4760 C   0  0  0  0  0  0  0  0  0  0  0  0
  149.1700  159.6750  131.0450 C   0  0  2  0  0  0  0  0  0  0  0  0
  150.4230  160.1210  131.4980 O   0  0  0  0  0  0  0  0  0  0  0  0
  148.0580  160.5850  131.5950 C   0  0  0  0  0  0  0  0  0  0  0  0
  143.7480  155.9190  133.4110 C   0  0  0  0  0  0  0  0  0  0  0  0
  143.3810  154.5680  133.4000 C   0  0  0  0  0  0  0  0  0  0  0  0
  142.1460  154.0320  133.5260 N   0  0  0  0  0  0  0  0  0  0  0  0
  140.9140  154.7510  133.7120 C   0  0  0  0  0  0  0  0  0  0  0  0
  139.9430  154.5650  132.9320 O   0  0  0  0  0  0  0  0  0  0  0  0
  140.7780  155.6520  134.7620 O   0  0  0  0  0  0  0  0  0  0  0  0
  139.9930  152.6190  132.0400 H   0  0  0  0  0  0  0  0  0  0  0  0
  139.3040  151.1320  132.7700 H   0  0  0  0  0  0  0  0  0  0  0  0
  144.1285  151.3661  133.3177 H   0  0  0  0  0  0  0  0  0  0  0  0
  146.4246  153.0526  133.0833 H   0  0  0  0  0  0  0  0  0  0  0  0
  147.1432  155.4665  133.0553 H   0  0  0  0  0  0  0  0  0  0  0  0
  145.7158  160.7187  132.5227 H   0  0  0  0  0  0  0  0  0  0  0  0
  146.0841  160.5861  134.2989 H   0  0  0  0  0  0  0  0  0  0  0  0
  149.5759  159.8785  133.9177 H   0  0  0  0  0  0  0  0  0  0  0  0
  148.0925  159.1527  134.6986 H   0  0  0  0  0  0  0  0  0  0  0  0
  149.7700  157.6284  133.3626 H   0  0  0  0  0  0  0  0  0  0  0  0
  147.9568  157.4331  133.2100 H   0  0  0  0  0  0  0  0  0  0  0  0
  149.7429  157.5996  131.1057 H   0  0  0  0  0  0  0  0  0  0  0  0
  147.9515  157.9154  131.0524 H   0  0  0  0  0  0  0  0  0  0  0  0
  149.1647  159.7168  129.9458 H   0  0  0  0  0  0  0  0  0  0  0  0
  150.7000  160.8560  130.8910 H   0  0  0  0  0  0  0  0  0  0  0  0
  148.3821  161.6305  131.4863 H   0  0  0  0  0  0  0  0  0  0  0  0
  147.1493  160.3593  131.0177 H   0  0  0  0  0  0  0  0  0  0  0  0
  142.9911  156.7103  133.5157 H   0  0  0  0  0  0  0  0  0  0  0  0
  1  2  1  0
  2  3  2  0
  2  4  1  0
  4  5  2  0
  5  6  1  0
  6  7  2  0
  7  8  1  0
  8  9  2  0
  9 10  1  0
 10 11  3  0
 11 12  1  0
 12 13  1  0
 13 14  1  0
 14 15  1  0
 15 16  1  0
 16 17  1  0
 17 18  1  0
 17 19  1  0
  9 20  1  0
 20 21  2  0
 21 22  1  0
 22 23  1  0
 23 24  2  0
 23 25  1  0
 22  4  1  0
 21  6  1  0
 19 13  1  0
  1 26  1  0
  1 27  1  0
  5 28  1  0
  7 29  1  0
  8 30  1  0
 12 31  1  0
 12 32  1  0
 14 33  1  0
 14 34  1  0
 15 35  1  0
 15 36  1  0
 16 37  1  0
 16 38  1  0
 17 39  1  6
 18 40  1  0
 19 41  1  0
 19 42  1  0
 20 43  1  0
M  CHG  1  25  -1
M  END
>  <UniqueID>  (64) 
63

>  <SMILES>  (64) 
NC(=O)c1cc2ccc(C#CCN3CCC[C@H](O)C3)cc2n1C(=O)[O-]

>  <Energy>  (64) 
90.27191609638737

>  <Genealogy>  (64) 
NC(=O)c1cc2ccc(C#CCN3CCCC(O)C3)cc2n1C(=O)[O-] (protonated)
NC(=O)c1cc2ccc(C#CCN3CCC[C@H](O)C3)cc2n1C(=O)[O-] (chirality)
NC(=O)c1cc2ccc(C#CCN3CCC[C@H](O)C3)cc2n1C(=O)[O-] (3D coordinates assigned)
NC(=O)c1cc2ccc(C#CCN3CCC[C@H](O)C3)cc2n1C(=O)[O-] (nonaromatic ring conformer: 90.27191609638737 kcal/mol)

>  <smiles>  (64) 
NC(=O)c1cc2ccc(C#CCN3CCCC(O)C3)cc2n1C(=O)O

>  <score_type>  (64) 
oracle

>  <origin>  (64) 
adg

>  <m_score__min__energy>  (64) 
-8.25

>  <m_primary>  (64) 
energy

$$$$
64:0
     RDKit          3D

 40 42  0  0  0  0  0  0  0  0999 V2000
  149.3050  162.3150  130.3500 C   0  0  0  0  0  0  0  0  0  0  0  0
  148.5330  161.3260  130.9950 O   0  0  0  0  0  0  0  0  0  0  0  0
  148.7550  160.0570  130.4050 C   0  0  0  0  0  0  0  0  0  0  0  0
  149.9330  159.3670  131.0840 C   0  0  0  0  0  0  0  0  0  0  0  0
  149.4710  158.2330  131.8080 O   0  0  0  0  0  0  0  0  0  0  0  0
  148.7500  158.3320  133.0000 C   0  0  0  0  0  0  0  0  0  0  0  0
  149.2090  159.0040  133.9640 O   0  0  0  0  0  0  0  0  0  0  0  0
  147.4860  157.6590  133.1300 N   0  0  0  0  0  0  0  0  0  0  0  0
  146.2600  158.2220  133.3240 C   0  0  0  0  0  0  0  0  0  0  0  0
  145.9560  159.6660  133.2860 C   0  0  0  0  0  0  0  0  0  0  0  0
  146.9850  160.6340  133.0790 N   0  0  0  0  0  0  0  0  0  0  0  0
  144.7580  160.0480  133.3800 O   0  0  0  0  0  0  0  0  0  0  0  0
  145.2900  157.2410  133.5050 C   0  0  0  0  0  0  0  0  0  0  0  0
  145.9600  156.0450  133.3980 C   0  0  0  0  0  0  0  0  0  0  0  0
  145.4830  154.7420  133.4980 C   0  0  0  0  0  0  0  0  0  0  0  0
  146.4030  153.6890  133.3700 C   0  0  0  0  0  0  0  0  0  0  0  0
  147.7820  153.9530  133.1580 C   0  0  0  0  0  0  0  0  0  0  0  0
  148.7660  152.8540  133.0230 C   0  0  0  0  0  0  0  0  0  0  0  0
  149.4850  152.5080  131.8900 C   0  0  0  0  0  0  0  0  0  0  0  0
  150.2660  151.4340  132.2540 C   0  0  0  0  0  0  0  0  0  0  0  0
  149.9830  151.1860  133.5790 C   0  0  0  0  0  0  0  0  0  0  0  0
  149.0900  152.0450  134.0090 O   0  0  0  0  0  0  0  0  0  0  0  0
  148.2270  155.2920  133.0710 C   0  0  0  0  0  0  0  0  0  0  0  0
  147.2840  156.3220  133.1750 C   0  0  0  0  0  0  0  0  0  0  0  0
  149.7974  162.9458  131.1047 H   0  0  0  0  0  0  0  0  0  0  0  0
  150.0678  161.8325  129.7212 H   0  0  0  0  0  0  0  0  0  0  0  0
  148.6518  162.9378  129.7212 H   0  0  0  0  0  0  0  0  0  0  0  0
  147.8533  159.4379  130.5216 H   0  0  0  0  0  0  0  0  0  0  0  0
  148.9801  160.1892  129.3364 H   0  0  0  0  0  0  0  0  0  0  0  0
  150.6569  159.0440  130.3213 H   0  0  0  0  0  0  0  0  0  0  0  0
  150.4170  160.0702  131.7778 H   0  0  0  0  0  0  0  0  0  0  0  0
  147.9560  160.3430  132.8310 H   0  0  0  0  0  0  0  0  0  0  0  0
  146.7570  161.6530  133.0910 H   0  0  0  0  0  0  0  0  0  0  0  0
  144.2166  157.3903  133.6934 H   0  0  0  0  0  0  0  0  0  0  0  0
  144.4154  154.5423  133.6724 H   0  0  0  0  0  0  0  0  0  0  0  0
  146.0518  152.6486  133.4346 H   0  0  0  0  0  0  0  0  0  0  0  0
  149.4409  152.9917  130.9031 H   0  0  0  0  0  0  0  0  0  0  0  0
  150.9734  150.8847  131.6153 H   0  0  0  0  0  0  0  0  0  0  0  0
  150.4373  150.3882  134.1849 H   0  0  0  0  0  0  0  0  0  0  0  0
  149.2930  155.5203  132.9245 H   0  0  0  0  0  0  0  0  0  0  0  0
  1  2  1  0
  2  3  1  0
  3  4  1  0
  4  5  1  0
  5  6  1  0
  6  7  2  0
  6  8  1  0
  8  9  1  0
  9 10  1  0
 10 11  1  0
 10 12  2  0
  9 13  2  0
 13 14  1  0
 14 15  2  0
 15 16  1  0
 16 17  2  0
 17 18  1  0
 18 19  2  0
 19 20  1  0
 20 21  2  0
 21 22  1  0
 17 23  1  0
 23 24  2  0
 24  8  1  0
 24 14  1  0
 22 18  1  0
  1 25  1  0
  1 26  1  0
  1 27  1  0
  3 28  1  0
  3 29  1  0
  4 30  1  0
  4 31  1  0
 11 32  1  0
 11 33  1  0
 13 34  1  0
 15 35  1  0
 16 36  1  0
 19 37  1  0
 20 38  1  0
 21 39  1  0
 23 40  1  0
M  END
>  <UniqueID>  (65) 
64

>  <SMILES>  (65) 
COCCOC(=O)n1c(C(N)=O)cc2ccc(-c3ccco3)cc21

>  <Energy>  (65) 
105.84568452032919

>  <Genealogy>  (65) 
COCCOC(=O)n1c(C(N)=O)cc2ccc(-c3ccco3)cc21 (3D coordinates assigned)
COCCOC(=O)n1c(C(N)=O)cc2ccc(-c3ccco3)cc21 (optimized conformer: 105.84568452032919 kcal/mol)

>  <smiles>  (65) 
COCCOC(=O)n1c(C(N)=O)cc2ccc(-c3ccco3)cc21

>  <score_type>  (65) 
oracle

>  <origin>  (65) 
adg

>  <m_score__min__energy>  (65) 
-6.6299999999999999

>  <m_primary>  (65) 
energy

$$$$
65:0
     RDKit          3D

 55 56  0  0  0  0  0  0  0  0999 V2000
  137.8970  159.9570  131.0910 C   0  0  0  0  0  0  0  0  0  0  0  0
  139.1670  159.5700  131.2280 C   0  0  0  0  0  0  0  0  0  0  0  0
  139.5110  158.2630  131.8790 C   0  0  0  0  0  0  0  0  0  0  0  0
  139.3640  158.3730  133.3270 N   0  0  0  0  0  0  0  0  0  0  0  0
  140.4650  158.5680  134.2280 C   0  0  0  0  0  0  0  0  0  0  0  0
  140.1400  158.7490  135.8280 S   0  0  0  0  0  0  0  0  0  0  0  0
  141.8020  158.7550  133.7320 N   0  0  0  0  0  0  0  0  0  0  0  0
  142.9810  158.3730  134.4610 C   0  0  0  0  0  0  0  0  0  0  0  0
  142.8900  157.6550  135.4940 O   0  0  0  0  0  0  0  0  0  0  0  0
  144.2780  158.7810  134.0060 N   0  0  0  0  0  0  0  0  0  0  0  0
  144.7020  160.0540  133.7710 C   0  0  0  0  0  0  0  0  0  0  0  0
  143.8410  161.2550  133.7290 C   0  0  0  0  0  0  0  0  0  0  0  0
  142.4550  161.1530  133.4150 N   0  0  0  0  0  0  0  0  0  0  0  0
  144.3410  162.3920  133.9460 O   0  0  0  0  0  0  0  0  0  0  0  0
  146.0740  160.0770  133.5370 C   0  0  0  0  0  0  0  0  0  0  0  0
  146.4830  158.7670  133.6430 C   0  0  0  0  0  0  0  0  0  0  0  0
  147.7590  158.2180  133.5570 C   0  0  0  0  0  0  0  0  0  0  0  0
  147.8960  156.8350  133.7560 C   0  0  0  0  0  0  0  0  0  0  0  0
  146.7630  156.0270  134.0220 C   0  0  0  0  0  0  0  0  0  0  0  0
  146.9120  154.5290  134.1580 C   0  0  0  0  0  0  0  0  0  0  0  0
  147.1920  153.8020  132.8190 C   0  0  2  0  0  0  0  0  0  0  0  0
  146.2660  152.5850  132.6080 C   0  0  0  0  0  0  0  0  0  0  0  0
  144.8240  152.9980  132.3140 C   0  0  0  0  0  0  0  0  0  0  0  0
  148.6440  153.4140  132.7030 C   0  0  0  0  0  0  0  0  0  0  0  0
  149.4830  154.2490  132.2690 O   0  0  0  0  0  0  0  0  0  0  0  0
  149.0570  152.1440  133.1110 O   0  0  0  0  0  0  0  0  0  0  0  0
  150.2190  151.5040  132.6010 C   0  0  0  0  0  0  0  0  0  0  0  0
  149.8840  150.7970  131.2990 C   0  0  0  0  0  0  0  0  0  0  0  0
  145.4840  156.6240  134.1250 C   0  0  0  0  0  0  0  0  0  0  0  0
  145.3790  158.0040  133.9200 C   0  0  0  0  0  0  0  0  0  0  0  0
  137.6639  160.9189  130.6110 H   0  0  0  0  0  0  0  0  0  0  0  0
  137.0835  159.3141  131.4582 H   0  0  0  0  0  0  0  0  0  0  0  0
  139.9739  160.2195  130.8578 H   0  0  0  0  0  0  0  0  0  0  0  0
  138.8364  157.4799  131.5027 H   0  0  0  0  0  0  0  0  0  0  0  0
  140.5530  158.0038  131.6403 H   0  0  0  0  0  0  0  0  0  0  0  0
  138.3920  158.3630  133.7110 H   0  0  0  0  0  0  0  0  0  0  0  0
  141.9310  159.2170  132.8050 H   0  0  0  0  0  0  0  0  0  0  0  0
  141.8190  161.9770  133.5040 H   0  0  0  0  0  0  0  0  0  0  0  0
  146.6983  160.9550  133.3147 H   0  0  0  0  0  0  0  0  0  0  0  0
  148.6337  158.8486  133.3397 H   0  0  0  0  0  0  0  0  0  0  0  0
  148.8934  156.3739  133.7048 H   0  0  0  0  0  0  0  0  0  0  0  0
  147.7472  154.3249  134.8442 H   0  0  0  0  0  0  0  0  0  0  0  0
  145.9524  154.1456  134.5350 H   0  0  0  0  0  0  0  0  0  0  0  0
  146.9658  154.5158  132.0132 H   0  0  0  0  0  0  0  0  0  0  0  0
  146.6448  151.9949  131.7605 H   0  0  0  0  0  0  0  0  0  0  0  0
  146.2651  151.9974  133.5379 H   0  0  0  0  0  0  0  0  0  0  0  0
  144.2863  153.1520  133.2612 H   0  0  0  0  0  0  0  0  0  0  0  0
  144.8213  153.9330  131.7346 H   0  0  0  0  0  0  0  0  0  0  0  0
  144.3267  152.2062  131.7346 H   0  0  0  0  0  0  0  0  0  0  0  0
  151.0004  152.2563  132.4181 H   0  0  0  0  0  0  0  0  0  0  0  0
  150.5802  150.7670  133.3334 H   0  0  0  0  0  0  0  0  0  0  0  0
  149.4225  149.8230  131.5189 H   0  0  0  0  0  0  0  0  0  0  0  0
  149.1818  151.4126  130.7176 H   0  0  0  0  0  0  0  0  0  0  0  0
  150.8051  150.6434  130.7176 H   0  0  0  0  0  0  0  0  0  0  0  0
  144.5959  156.0190  134.3600 H   0  0  0  0  0  0  0  0  0  0  0  0
  1  2  2  0
  2  3  1  0
  3  4  1  0
  4  5  1  0
  5  6  2  0
  5  7  1  0
  7  8  1  0
  8  9  2  0
  8 10  1  0
 10 11  1  0
 11 12  1  0
 12 13  1  0
 12 14  2  0
 11 15  2  0
 15 16  1  0
 16 17  2  0
 17 18  1  0
 18 19  2  0
 19 20  1  0
 20 21  1  0
 21 22  1  0
 22 23  1  0
 21 24  1  0
 24 25  2  0
 24 26  1  0
 26 27  1  0
 27 28  1  0
 19 29  1  0
 29 30  2  0
 30 10  1  0
 30 16  1  0
  1 31  1  0
  1 32  1  0
  2 33  1  0
  3 34  1  0
  3 35  1  0
  4 36  1  0
  7 37  1  0
 13 38  1  0
 15 39  1  0
 17 40  1  0
 18 41  1  0
 20 42  1  0
 20 43  1  0
 21 44  1  6
 22 45  1  0
 22 46  1  0
 23 47  1  0
 23 48  1  0
 23 49  1  0
 27 50  1  0
 27 51  1  0
 28 52  1  0
 28 53  1  0
 28 54  1  0
 29 55  1  0
M  CHG  1  13  -1
M  END
>  <UniqueID>  (66) 
65

>  <SMILES>  (66) 
C=CCNC(=S)NC(=O)n1c(C([NH-])=O)cc2ccc(C[C@H](CC)C(=O)OCC)cc21

>  <Energy>  (66) 
78.15244068103571

>  <Genealogy>  (66) 
C=CCNC(=S)NC(=O)n1c(C([NH-])=O)cc2ccc(CC(CC)C(=O)OCC)cc21 (protonated)
C=CCNC(=S)NC(=O)n1c(C([NH-])=O)cc2ccc(C[C@H](CC)C(=O)OCC)cc21 (chirality)
C=CCNC(=S)NC(=O)n1c(C([NH-])=O)cc2ccc(C[C@H](CC)C(=O)OCC)cc21 (3D coordinates assigned)
C=CCNC(=S)NC(=O)n1c(C([NH-])=O)cc2ccc(C[C@H](CC)C(=O)OCC)cc21 (optimized conformer: 78.15244068103571 kcal/mol)

>  <smiles>  (66) 
C=CCNC(=S)NC(=O)n1c(C(N)=O)cc2ccc(CC(CC)C(=O)OCC)cc21

>  <score_type>  (66) 
oracle

>  <origin>  (66) 
adg

>  <m_score__min__energy>  (66) 
-8.7799999999999994

>  <m_primary>  (66) 
energy

$$$$
66:0
     RDKit          3D

 41 43  0  0  1  0  0  0  0  0999 V2000
  148.6190  157.4890  131.8900 N   0  0  0  0  0  0  0  0  0  0  0  0
  148.2600  158.4760  132.8860 C   0  0  0  0  0  0  0  0  0  0  0  0
  149.2340  158.9860  133.4820 O   0  0  0  0  0  0  0  0  0  0  0  0
  146.8650  158.7890  133.1120 C   0  0  0  0  0  0  0  0  0  0  0  0
  146.4200  160.1030  133.2800 C   0  0  0  0  0  0  0  0  0  0  0  0
  145.0610  160.0990  133.4760 C   0  0  0  0  0  0  0  0  0  0  0  0
  144.1810  161.1390  133.6850 C   0  0  0  0  0  0  0  0  0  0  0  0
  142.8460  160.8500  133.8540 C   0  0  0  0  0  0  0  0  0  0  0  0
  142.4010  159.5220  133.8130 C   0  0  0  0  0  0  0  0  0  0  0  0
  140.9630  159.3070  133.9850 C   0  0  1  0  0  0  0  0  0  0  0  0
  140.3140  158.3870  133.0190 C   0  0  0  0  0  0  0  0  0  0  0  0
  138.9320  158.7390  132.5960 C   0  0  0  0  0  0  0  0  0  0  0  0
  138.9740  159.8040  131.4900 C   0  0  0  0  0  0  0  0  0  0  0  0
  139.4200  160.9970  132.0120 F   0  0  0  0  0  0  0  0  0  0  0  0
  137.7020  159.9950  130.9810 F   0  0  0  0  0  0  0  0  0  0  0  0
  139.8140  159.3790  130.4820 F   0  0  0  0  0  0  0  0  0  0  0  0
  140.7490  158.7970  135.3740 C   0  0  0  0  0  0  0  0  0  0  0  0
  139.6250  158.2370  135.8750 N   0  0  0  0  0  0  0  0  0  0  0  0
  139.7870  157.9320  137.1190 O   0  0  0  0  0  0  0  0  0  0  0  0
  141.0000  158.2760  137.4660 C   0  0  0  0  0  0  0  0  0  0  0  0
  141.4370  158.0920  138.6420 O   0  0  0  0  0  0  0  0  0  0  0  0
  141.6130  158.8130  136.4030 N   0  0  0  0  0  0  0  0  0  0  0  0
  143.3330  158.5220  133.5980 C   0  0  0  0  0  0  0  0  0  0  0  0
  144.6810  158.7750  133.4240 C   0  0  0  0  0  0  0  0  0  0  0  0
  145.7830  158.0020  133.2050 N   0  0  0  0  0  0  0  0  0  0  0  0
  145.7440  156.5920  133.0980 C   0  0  0  0  0  0  0  0  0  0  0  0
  145.0490  155.9740  133.9540 O   0  0  0  0  0  0  0  0  0  0  0  0
  146.3830  155.8280  132.1620 O   0  0  0  0  0  0  0  0  0  0  0  0
  148.1280  156.5570  131.8780 H   0  0  0  0  0  0  0  0  0  0  0  0
  149.3670  157.7390  131.2030 H   0  0  0  0  0  0  0  0  0  0  0  0
  147.0577  160.9990  133.2586 H   0  0  0  0  0  0  0  0  0  0  0  0
  144.5384  162.1789  133.7161 H   0  0  0  0  0  0  0  0  0  0  0  0
  142.1259  161.6644  134.0218 H   0  0  0  0  0  0  0  0  0  0  0  0
  140.4840  160.2786  133.7936 H   0  0  0  0  0  0  0  0  0  0  0  0
  140.9417  158.3525  132.1163 H   0  0  0  0  0  0  0  0  0  0  0  0
  140.2220  157.4264  133.5471 H   0  0  0  0  0  0  0  0  0  0  0  0
  138.4276  157.8387  132.2152 H   0  0  0  0  0  0  0  0  0  0  0  0
  138.3816  159.1389  133.4604 H   0  0  0  0  0  0  0  0  0  0  0  0
  142.5910  159.1700  136.4420 H   0  0  0  0  0  0  0  0  0  0  0  0
  142.9857  157.4788  133.5640 H   0  0  0  0  0  0  0  0  0  0  0  0
  146.1310  155.9380  131.1810 H   0  0  0  0  0  0  0  0  0  0  0  0
  1  2  1  0
  2  3  2  0
  2  4  1  0
  4  5  2  0
  5  6  1  0
  6  7  2  0
  7  8  1  0
  8  9  2  0
  9 10  1  0
 10 11  1  0
 11 12  1  0
 12 13  1  0
 13 14  1  0
 13 15  1  0
 13 16  1  0
 10 17  1  0
 17 18  2  0
 18 19  1  0
 19 20  1  0
 20 21  2  0
 20 22  1  0
  9 23  1  0
 23 24  2  0
 24 25  1  0
 25 26  1  0
 26 27  2  0
 26 28  1  0
 25  4  1  0
 24  6  1  0
 22 17  1  0
  1 29  1  0
  1 30  1  0
  5 31  1  0
  7 32  1  0
  8 33  1  0
 10 34  1  1
 11 35  1  0
 11 36  1  0
 12 37  1  0
 12 38  1  0
 22 39  1  0
 23 40  1  0
 28 41  1  0
M  END
>  <smiles>  (67) 
NC(=O)c1cc2ccc(C(CCC(F)(F)F)c3noc(=O)[nH]3)cc2n1C(=O)O

>  <score_type>  (67) 
oracle

>  <origin>  (67) 
adg

>  <m_score__min__energy>  (67) 
-8.4100000000000001

>  <m_primary>  (67) 
energy

$$$$
67:0
     RDKit          3D

 63 64  0  0  0  0  0  0  0  0999 V2000
  138.4690  148.9060  130.3220 C   0  0  0  0  0  0  0  0  0  0  0  0
  139.3470  147.9350  130.8550 O   0  0  0  0  0  0  0  0  0  0  0  0
  140.6090  148.5150  131.1390 C   0  0  0  0  0  0  0  0  0  0  0  0
  140.4790  149.5870  132.2240 C   0  0  0  0  0  0  0  0  0  0  0  0
  141.7710  150.0450  132.6280 O   0  0  0  0  0  0  0  0  0  0  0  0
  141.9600  151.0410  133.5900 C   0  0  0  0  0  0  0  0  0  0  0  0
  141.3020  151.0230  134.6690 O   0  0  0  0  0  0  0  0  0  0  0  0
  142.8760  152.0640  133.3260 O   0  0  0  0  0  0  0  0  0  0  0  0
  142.5140  153.3400  132.7980 C   0  0  1  0  0  0  0  0  0  0  0  0
  141.0200  153.5630  132.9790 C   0  0  0  0  0  0  0  0  0  0  0  0
  143.2390  154.3590  133.4880 O   0  0  0  0  0  0  0  0  0  0  0  0
  142.9780  154.6900  134.8240 C   0  0  0  0  0  0  0  0  0  0  0  0
  143.0840  153.8180  135.7310 O   0  0  0  0  0  0  0  0  0  0  0  0
  142.5250  156.0750  135.1690 C   0  0  0  0  0  0  0  0  0  0  0  0
  143.3470  157.1070  134.4430 C   0  0  0  0  0  0  0  0  0  0  0  0
  142.8570  158.4240  134.2730 C   0  0  0  0  0  0  0  0  0  0  0  0
  143.6680  159.4260  133.7070 C   0  0  0  0  0  0  0  0  0  0  0  0
  144.9570  159.0710  133.3090 C   0  0  0  0  0  0  0  0  0  0  0  0
  145.9870  159.8550  132.8320 C   0  0  0  0  0  0  0  0  0  0  0  0
  147.0740  158.9850  132.6850 C   0  0  0  0  0  0  0  0  0  0  0  0
  148.4210  159.3810  132.2190 C   0  0  0  0  0  0  0  0  0  0  0  0
  149.5950  159.0150  132.9490 N   0  0  0  0  0  0  0  0  0  0  0  0
  148.5480  160.0610  131.1670 O   0  0  0  0  0  0  0  0  0  0  0  0
  146.7240  157.7230  133.0580 N   0  0  0  0  0  0  0  0  0  0  0  0
  147.5720  156.5720  133.1550 C   0  0  0  0  0  0  0  0  0  0  0  0
  148.7390  156.6150  132.6830 O   0  0  0  0  0  0  0  0  0  0  0  0
  147.1040  155.3790  133.8020 N   0  0  0  0  0  0  0  0  0  0  0  0
  146.4130  154.3480  133.0260 C   0  0  0  0  0  0  0  0  0  0  0  0
  147.2180  155.2390  135.2580 C   0  0  0  0  0  0  0  0  0  0  0  0
  146.2930  154.1540  135.8010 C   0  0  0  0  0  0  0  0  0  0  0  0
  146.9950  153.3520  136.7330 O   0  0  0  0  0  0  0  0  0  0  0  0
  148.2170  153.9810  137.0710 C   0  0  0  0  0  0  0  0  0  0  0  0
  145.4320  157.7900  133.4370 C   0  0  0  0  0  0  0  0  0  0  0  0
  144.6550  156.7870  134.0190 C   0  0  0  0  0  0  0  0  0  0  0  0
  137.9789  149.4480  131.1443 H   0  0  0  0  0  0  0  0  0  0  0  0
  139.0386  149.6152  129.7035 H   0  0  0  0  0  0  0  0  0  0  0  0
  137.7062  148.4105  129.7035 H   0  0  0  0  0  0  0  0  0  0  0  0
  141.2971  147.7305  131.4869 H   0  0  0  0  0  0  0  0  0  0  0  0
  140.9974  148.9838  130.2228 H   0  0  0  0  0  0  0  0  0  0  0  0
  139.9010  150.4352  131.8283 H   0  0  0  0  0  0  0  0  0  0  0  0
  139.9653  149.1535  133.0947 H   0  0  0  0  0  0  0  0  0  0  0  0
  142.7576  153.3773  131.7260 H   0  0  0  0  0  0  0  0  0  0  0  0
  140.7820  153.5985  134.0524 H   0  0  0  0  0  0  0  0  0  0  0  0
  140.7315  154.5142  132.5078 H   0  0  0  0  0  0  0  0  0  0  0  0
  140.4663  152.7376  132.5078 H   0  0  0  0  0  0  0  0  0  0  0  0
  141.4690  156.1899  134.8833 H   0  0  0  0  0  0  0  0  0  0  0  0
  142.6493  156.2254  136.2516 H   0  0  0  0  0  0  0  0  0  0  0  0
  141.8311  158.6673  134.5866 H   0  0  0  0  0  0  0  0  0  0  0  0
  143.2977  160.4543  133.5828 H   0  0  0  0  0  0  0  0  0  0  0  0
  145.9600  160.9328  132.6139 H   0  0  0  0  0  0  0  0  0  0  0  0
  150.5350  159.3040  132.5900 H   0  0  0  0  0  0  0  0  0  0  0  0
  149.5530  158.3280  133.7320 H   0  0  0  0  0  0  0  0  0  0  0  0
  145.9338  153.6330  133.7110 H   0  0  0  0  0  0  0  0  0  0  0  0
  145.6469  154.8181  132.3919 H   0  0  0  0  0  0  0  0  0  0  0  0
  147.1390  153.8181  132.3919 H   0  0  0  0  0  0  0  0  0  0  0  0
  148.2568  154.9790  135.5097 H   0  0  0  0  0  0  0  0  0  0  0  0
  146.9257  156.1956  135.7157 H   0  0  0  0  0  0  0  0  0  0  0  0
  145.4312  154.6232  136.2981 H   0  0  0  0  0  0  0  0  0  0  0  0
  145.9419  153.5247  134.9699 H   0  0  0  0  0  0  0  0  0  0  0  0
  148.3134  154.0306  138.1656 H   0  0  0  0  0  0  0  0  0  0  0  0
  149.0547  153.4021  136.6550 H   0  0  0  0  0  0  0  0  0  0  0  0
  148.2326  154.9992  136.6550 H   0  0  0  0  0  0  0  0  0  0  0  0
  145.0532  155.7693  134.1445 H   0  0  0  0  0  0  0  0  0  0  0  0
  1  2  1  0
  2  3  1  0
  3  4  1  0
  4  5  1  0
  5  6  1  0
  6  7  2  0
  6  8  1  0
  8  9  1  0
  9 10  1  0
  9 11  1  0
 11 12  1  0
 12 13  2  0
 12 14  1  0
 14 15  1  0
 15 16  2  0
 16 17  1  0
 17 18  2  0
 18 19  1  0
 19 20  2  0
 20 21  1  0
 21 22  1  0
 21 23  2  0
 20 24  1  0
 24 25  1  0
 25 26  2  0
 25 27  1  0
 27 28  1  0
 27 29  1  0
 29 30  1  0
 30 31  1  0
 31 32  1  0
 24 33  1  0
 33 34  2  0
 34 15  1  0
 33 18  1  0
  1 35  1  0
  1 36  1  0
  1 37  1  0
  3 38  1  0
  3 39  1  0
  4 40  1  0
  4 41  1  0
  9 42  1  6
 10 43  1  0
 10 44  1  0
 10 45  1  0
 14 46  1  0
 14 47  1  0
 16 48  1  0
 17 49  1  0
 19 50  1  0
 22 51  1  0
 22 52  1  0
 28 53  1  0
 28 54  1  0
 28 55  1  0
 29 56  1  0
 29 57  1  0
 30 58  1  0
 30 59  1  0
 32 60  1  0
 32 61  1  0
 32 62  1  0
 34 63  1  0
M  END
>  <UniqueID>  (68) 
66

>  <SMILES>  (68) 
COCCOC(=O)O[C@@H](C)OC(=O)Cc1ccc2cc(C(N)=O)n(C(=O)N(C)CCOC)c2c1

>  <Energy>  (68) 
96.7774832346703

>  <Genealogy>  (68) 
COCCOC(=O)O[C@@H](C)OC(=O)Cc1ccc2cc(C(N)=O)n(C(=O)N(C)CCOC)c2c1 (chirality)
COCCOC(=O)O[C@@H](C)OC(=O)Cc1ccc2cc(C(N)=O)n(C(=O)N(C)CCOC)c2c1 (3D coordinates assigned)
COCCOC(=O)O[C@@H](C)OC(=O)Cc1ccc2cc(C(N)=O)n(C(=O)N(C)CCOC)c2c1 (optimized conformer: 96.7774832346703 kcal/mol)

>  <smiles>  (68) 
COCCOC(=O)OC(C)OC(=O)Cc1ccc2cc(C(N)=O)n(C(=O)N(C)CCOC)c2c1

>  <score_type>  (68) 
oracle

>  <origin>  (68) 
adg

>  <m_score__min__energy>  (68) 
-7.04

>  <m_primary>  (68) 
energy

$$$$
68:0
     RDKit          3D

 40 43  0  0  0  0  0  0  0  0999 V2000
  141.3430  159.9130  135.7150 N   0  0  0  0  0  0  0  0  0  0  0  0
  141.8980  160.2960  134.4610 C   0  0  0  0  0  0  0  0  0  0  0  0
  141.2730  161.1080  133.7270 O   0  0  0  0  0  0  0  0  0  0  0  0
  143.2270  159.8100  134.0480 C   0  0  0  0  0  0  0  0  0  0  0  0
  144.2900  160.6560  133.7400 C   0  0  0  0  0  0  0  0  0  0  0  0
  145.3720  159.8260  133.5500 C   0  0  0  0  0  0  0  0  0  0  0  0
  146.6870  160.1280  133.2120 C   0  0  0  0  0  0  0  0  0  0  0  0
  147.5890  159.0620  133.0550 C   0  0  0  0  0  0  0  0  0  0  0  0
  147.1690  157.7200  133.2530 C   0  0  0  0  0  0  0  0  0  0  0  0
  148.1300  156.5820  133.0230 C   0  0  0  0  0  0  0  0  0  0  0  0
  149.2860  157.0340  132.4100 F   0  0  0  0  0  0  0  0  0  0  0  0
  147.5590  155.6160  132.2110 F   0  0  0  0  0  0  0  0  0  0  0  0
  148.4580  156.0110  134.2390 F   0  0  0  0  0  0  0  0  0  0  0  0
  145.8180  157.4550  133.5750 C   0  0  0  0  0  0  0  0  0  0  0  0
  144.9470  158.5360  133.7330 C   0  0  0  0  0  0  0  0  0  0  0  0
  143.6280  158.5090  134.0210 N   0  0  0  0  0  0  0  0  0  0  0  0
  142.8270  157.3240  134.1770 C   0  0  0  0  0  0  0  0  0  0  0  0
  143.0510  156.5580  135.1530 O   0  0  0  0  0  0  0  0  0  0  0  0
  141.6890  157.0040  133.2240 C   0  0  2  0  0  0  0  0  0  0  0  0
  141.1590  158.2200  132.4310 C   0  0  0  0  0  0  0  0  0  0  0  0
  139.6380  158.1430  132.6890 C   0  0  1  0  0  0  0  0  0  0  0  0
  139.4030  156.6550  132.7690 C   0  0  0  0  0  0  0  0  0  0  0  0
  140.3950  156.4740  133.8890 C   0  0  2  0  0  0  0  0  0  0  0  0
  139.8480  157.5090  134.8910 C   0  0  0  0  0  0  0  0  0  0  0  0
  139.3480  158.6090  134.0530 N   0  0  0  0  0  0  0  0  0  0  0  0
  140.3800  159.5160  135.7770 H   0  0  0  0  0  0  0  0  0  0  0  0
  144.2693  161.7532  133.6647 H   0  0  0  0  0  0  0  0  0  0  0  0
  147.0111  161.1698  133.0719 H   0  0  0  0  0  0  0  0  0  0  0  0
  148.6325  159.2695  132.7755 H   0  0  0  0  0  0  0  0  0  0  0  0
  145.4610  156.4219  133.6982 H   0  0  0  0  0  0  0  0  0  0  0  0
  142.1840  156.2482  132.5966 H   0  0  0  0  0  0  0  0  0  0  0  0
  141.5811  159.1606  132.8146 H   0  0  0  0  0  0  0  0  0  0  0  0
  141.4265  158.2009  131.3642 H   0  0  0  0  0  0  0  0  0  0  0  0
  139.0600  158.7100  131.9444 H   0  0  0  0  0  0  0  0  0  0  0  0
  138.3732  156.3903  133.0510 H   0  0  0  0  0  0  0  0  0  0  0  0
  139.5207  156.0519  131.8566 H   0  0  0  0  0  0  0  0  0  0  0  0
  140.5498  155.4848  134.3446 H   0  0  0  0  0  0  0  0  0  0  0  0
  139.0334  157.0763  135.4903 H   0  0  0  0  0  0  0  0  0  0  0  0
  140.6150  157.8440  135.6048 H   0  0  0  0  0  0  0  0  0  0  0  0
  139.8760  159.4880  134.2630 H   0  0  0  0  0  0  0  0  0  0  0  0
  1  2  1  0
  2  3  2  0
  2  4  1  0
  4  5  2  0
  5  6  1  0
  6  7  2  0
  7  8  1  0
  8  9  2  0
  9 10  1  0
 10 11  1  0
 10 12  1  0
 10 13  1  0
  9 14  1  0
 14 15  2  0
 15 16  1  0
 16 17  1  0
 17 18  2  0
 17 19  1  0
 19 20  1  0
 20 21  1  0
 21 22  1  0
 22 23  1  0
 23 24  1  0
 24 25  1  0
 16  4  1  0
 23 19  1  0
 15  6  1  0
 25 21  1  0
  1 26  1  0
  5 27  1  0
  7 28  1  0
  8 29  1  0
 14 30  1  0
 19 31  1  6
 20 32  1  0
 20 33  1  0
 21 34  1  6
 22 35  1  0
 22 36  1  0
 23 37  1  1
 24 38  1  0
 24 39  1  0
 25 40  1  0
M  CHG  1   1  -1
M  END
>  <UniqueID>  (69) 
67

>  <SMILES>  (69) 
[NH-]C(=O)c1cc2ccc(C(F)(F)F)cc2n1C(=O)[C@@H]1C[C@H]2CC1CN2

>  <Energy>  (69) 
111.69961053747782

>  <Genealogy>  (69) 
[NH-]C(=O)c1cc2ccc(C(F)(F)F)cc2n1C(=O)C1CC2CC1CN2 (protonated)
[NH-]C(=O)c1cc2ccc(C(F)(F)F)cc2n1C(=O)[C@@H]1C[C@H]2CC1CN2 (chirality)
[NH-]C(=O)c1cc2ccc(C(F)(F)F)cc2n1C(=O)[C@@H]1C[C@H]2CC1CN2 (3D coordinates assigned)
[NH-]C(=O)c1cc2ccc(C(F)(F)F)cc2n1C(=O)[C@@H]1C[C@H]2CC1CN2 (nonaromatic ring conformer: 111.69961053747782 kcal/mol)

>  <smiles>  (69) 
NC(=O)c1cc2ccc(C(F)(F)F)cc2n1C(=O)C1CC2CC1CN2

>  <score_type>  (69) 
oracle

>  <origin>  (69) 
adg

>  <m_score__min__energy>  (69) 
-6.8499999999999996

>  <m_primary>  (69) 
energy

$$$$
69:0
     RDKit          3D

 45 46  0  0  0  0  0  0  0  0999 V2000
  144.2720  154.7390  133.9690 C   0  0  0  0  0  0  0  0  0  0  0  0
  145.2920  155.3730  134.9070 C   0  0  0  0  0  0  0  0  0  0  0  0
  146.5390  155.6750  134.1870 N   0  0  0  0  0  0  0  0  0  0  0  0
  147.7780  154.9850  134.5790 C   0  0  0  0  0  0  0  0  0  0  0  0
  148.1410  153.9130  133.5550 C   0  0  0  0  0  0  0  0  0  0  0  0
  148.5980  154.5240  132.3810 O   0  0  0  0  0  0  0  0  0  0  0  0
  146.5260  156.5180  133.0120 C   0  0  0  0  0  0  0  0  0  0  0  0
  146.5520  155.9990  131.8640 O   0  0  0  0  0  0  0  0  0  0  0  0
  146.4450  157.9470  133.1250 N   0  0  0  0  0  0  0  0  0  0  0  0
  147.4290  158.8650  132.9100 C   0  0  0  0  0  0  0  0  0  0  0  0
  148.8080  158.5460  132.4700 C   0  0  0  0  0  0  0  0  0  0  0  0
  149.1220  157.2770  131.8920 N   0  0  0  0  0  0  0  0  0  0  0  0
  149.7270  159.3960  132.6130 O   0  0  0  0  0  0  0  0  0  0  0  0
  146.9370  160.1550  133.1160 C   0  0  0  0  0  0  0  0  0  0  0  0
  145.6120  159.9930  133.4510 C   0  0  0  0  0  0  0  0  0  0  0  0
  144.6400  160.9400  133.7630 C   0  0  0  0  0  0  0  0  0  0  0  0
  143.3500  160.4810  134.0790 C   0  0  0  0  0  0  0  0  0  0  0  0
  143.0550  159.0930  134.0740 C   0  0  0  0  0  0  0  0  0  0  0  0
  141.6780  158.6130  134.4520 C   0  0  0  0  0  0  0  0  0  0  0  0
  141.0210  159.5310  135.4890 C   0  0  0  0  0  0  0  0  0  0  0  0
  140.6520  158.7850  136.7350 C   0  0  0  0  0  0  0  0  0  0  0  0
  139.6870  157.9760  136.7280 O   0  0  0  0  0  0  0  0  0  0  0  0
  141.3980  158.9560  137.8960 O   0  0  0  0  0  0  0  0  0  0  0  0
  144.0690  158.1620  133.7590 C   0  0  0  0  0  0  0  0  0  0  0  0
  145.3390  158.6510  133.4430 C   0  0  0  0  0  0  0  0  0  0  0  0
  143.4844  154.2495  134.5606 H   0  0  0  0  0  0  0  0  0  0  0  0
  143.8235  155.5177  133.3346 H   0  0  0  0  0  0  0  0  0  0  0  0
  144.7718  153.9921  133.3346 H   0  0  0  0  0  0  0  0  0  0  0  0
  144.8761  156.3053  135.3167 H   0  0  0  0  0  0  0  0  0  0  0  0
  145.5139  154.6662  135.7201 H   0  0  0  0  0  0  0  0  0  0  0  0
  148.5961  155.7178  134.6412 H   0  0  0  0  0  0  0  0  0  0  0  0
  147.6233  154.5048  135.5565 H   0  0  0  0  0  0  0  0  0  0  0  0
  148.9323  153.2679  133.9645 H   0  0  0  0  0  0  0  0  0  0  0  0
  147.2521  153.3054  133.3298 H   0  0  0  0  0  0  0  0  0  0  0  0
  147.8470  154.4760  131.7350 H   0  0  0  0  0  0  0  0  0  0  0  0
  150.1080  157.0530  131.6270 H   0  0  0  0  0  0  0  0  0  0  0  0
  148.3860  156.5630  131.7020 H   0  0  0  0  0  0  0  0  0  0  0  0
  147.4912  161.1012  133.0289 H   0  0  0  0  0  0  0  0  0  0  0  0
  144.8748  162.0147  133.7621 H   0  0  0  0  0  0  0  0  0  0  0  0
  142.5613  161.2046  134.3327 H   0  0  0  0  0  0  0  0  0  0  0  0
  141.0494  158.5876  133.5496 H   0  0  0  0  0  0  0  0  0  0  0  0
  141.7744  157.6105  134.8944 H   0  0  0  0  0  0  0  0  0  0  0  0
  141.7249  160.3350  135.7501 H   0  0  0  0  0  0  0  0  0  0  0  0
  140.0998  159.9409  135.0493 H   0  0  0  0  0  0  0  0  0  0  0  0
  143.8645  157.0812  133.7623 H   0  0  0  0  0  0  0  0  0  0  0  0
  1  2  1  0
  2  3  1  0
  3  4  1  0
  4  5  1  0
  5  6  1  0
  3  7  1  0
  7  8  2  0
  7  9  1  0
  9 10  1  0
 10 11  1  0
 11 12  1  0
 11 13  2  0
 10 14  2  0
 14 15  1  0
 15 16  2  0
 16 17  1  0
 17 18  2  0
 18 19  1  0
 19 20  1  0
 20 21  1  0
 21 22  2  0
 21 23  1  0
 18 24  1  0
 24 25  2  0
 25  9  1  0
 25 15  1  0
  1 26  1  0
  1 27  1  0
  1 28  1  0
  2 29  1  0
  2 30  1  0
  4 31  1  0
  4 32  1  0
  5 33  1  0
  5 34  1  0
  6 35  1  0
 12 36  1  0
 12 37  1  0
 14 38  1  0
 16 39  1  0
 17 40  1  0
 19 41  1  0
 19 42  1  0
 20 43  1  0
 20 44  1  0
 24 45  1  0
M  CHG  1  23  -1
M  END
>  <UniqueID>  (70) 
68

>  <SMILES>  (70) 
CCN(CCO)C(=O)n1c(C(N)=O)cc2ccc(CCC(=O)[O-])cc21

>  <Energy>  (70) 
72.27562516438404

>  <Genealogy>  (70) 
CCN(CCO)C(=O)n1c(C(N)=O)cc2ccc(CCC(=O)[O-])cc21 (protonated)
CCN(CCO)C(=O)n1c(C(N)=O)cc2ccc(CCC(=O)[O-])cc21 (3D coordinates assigned)
CCN(CCO)C(=O)n1c(C(N)=O)cc2ccc(CCC(=O)[O-])cc21 (optimized conformer: 72.27562516438404 kcal/mol)

>  <smiles>  (70) 
CCN(CCO)C(=O)n1c(C(N)=O)cc2ccc(CCC(=O)O)cc21

>  <score_type>  (70) 
oracle

>  <origin>  (70) 
adg

>  <m_score__min__energy>  (70) 
-6.5300000000000002

>  <m_primary>  (70) 
energy

$$$$
70:0
     RDKit          3D

 44 45  0  0  0  0  0  0  0  0999 V2000
  148.0510  152.3270  132.6740 C   0  0  0  0  0  0  0  0  0  0  0  0
  147.9940  153.7320  133.1120 N   0  0  0  0  0  0  0  0  0  0  0  0
  149.1970  154.4390  132.6430 C   0  0  0  0  0  0  0  0  0  0  0  0
  147.8790  153.8270  134.5830 C   0  0  0  0  0  0  0  0  0  0  0  0
  147.5270  155.2580  135.0020 C   0  0  0  0  0  0  0  0  0  0  0  0
  146.3100  155.7140  134.3140 N   0  0  0  0  0  0  0  0  0  0  0  0
  144.9940  155.3940  134.8730 C   0  0  0  0  0  0  0  0  0  0  0  0
  146.3850  156.5250  133.1220 C   0  0  0  0  0  0  0  0  0  0  0  0
  146.5640  155.9800  131.9980 O   0  0  0  0  0  0  0  0  0  0  0  0
  146.2630  157.9530  133.1880 N   0  0  0  0  0  0  0  0  0  0  0  0
  147.2530  158.8800  133.0580 C   0  0  0  0  0  0  0  0  0  0  0  0
  148.6700  158.5750  132.7340 C   0  0  0  0  0  0  0  0  0  0  0  0
  149.0150  157.5010  131.8570 N   0  0  0  0  0  0  0  0  0  0  0  0
  149.5950  159.2640  133.2430 O   0  0  0  0  0  0  0  0  0  0  0  0
  146.7370  160.1640  133.2460 C   0  0  0  0  0  0  0  0  0  0  0  0
  145.3980  159.9850  133.5130 C   0  0  0  0  0  0  0  0  0  0  0  0
  144.4090  160.9180  133.8110 C   0  0  0  0  0  0  0  0  0  0  0  0
  143.1150  160.4420  134.0820 C   0  0  0  0  0  0  0  0  0  0  0  0
  142.8270  159.0520  134.0390 C   0  0  0  0  0  0  0  0  0  0  0  0
  141.4490  158.5510  134.3850 C   0  0  0  0  0  0  0  0  0  0  0  0
  141.2880  157.2390  133.9730 F   0  0  0  0  0  0  0  0  0  0  0  0
  141.2710  158.6180  135.7550 F   0  0  0  0  0  0  0  0  0  0  0  0
  140.4800  159.3210  133.7650 F   0  0  0  0  0  0  0  0  0  0  0  0
  143.8680  158.1360  133.7610 C   0  0  0  0  0  0  0  0  0  0  0  0
  145.1410  158.6420  133.4800 C   0  0  0  0  0  0  0  0  0  0  0  0
  148.0777  151.6690  133.5551 H   0  0  0  0  0  0  0  0  0  0  0  0
  147.1615  152.0949  132.0699 H   0  0  0  0  0  0  0  0  0  0  0  0
  148.9563  152.1677  132.0699 H   0  0  0  0  0  0  0  0  0  0  0  0
  149.7815  154.7825  133.5092 H   0  0  0  0  0  0  0  0  0  0  0  0
  149.8093  153.7571  132.0347 H   0  0  0  0  0  0  0  0  0  0  0  0
  148.8992  155.3057  132.0347 H   0  0  0  0  0  0  0  0  0  0  0  0
  147.0895  153.1438  134.9293 H   0  0  0  0  0  0  0  0  0  0  0  0
  148.8436  153.5512  135.0340 H   0  0  0  0  0  0  0  0  0  0  0  0
  147.3598  155.2857  136.0889 H   0  0  0  0  0  0  0  0  0  0  0  0
  148.3595  155.9227  134.7281 H   0  0  0  0  0  0  0  0  0  0  0  0
  145.0491  155.4074  135.9715 H   0  0  0  0  0  0  0  0  0  0  0  0
  144.2602  156.1399  134.5336 H   0  0  0  0  0  0  0  0  0  0  0  0
  144.6846  154.3945  134.5336 H   0  0  0  0  0  0  0  0  0  0  0  0
  148.2910  156.9310  131.3710 H   0  0  0  0  0  0  0  0  0  0  0  0
  150.0190  157.3000  131.6530 H   0  0  0  0  0  0  0  0  0  0  0  0
  147.2843  161.1167  133.1922 H   0  0  0  0  0  0  0  0  0  0  0  0
  144.6334  161.9946  133.8337 H   0  0  0  0  0  0  0  0  0  0  0  0
  142.3151  161.1549  134.3306 H   0  0  0  0  0  0  0  0  0  0  0  0
  143.6809  157.0520  133.7657 H   0  0  0  0  0  0  0  0  0  0  0  0
  1  2  1  0
  2  3  1  0
  2  4  1  0
  4  5  1  0
  5  6  1  0
  6  7  1  0
  6  8  1  0
  8  9  2  0
  8 10  1  0
 10 11  1  0
 11 12  1  0
 12 13  1  0
 12 14  2  0
 11 15  2  0
 15 16  1  0
 16 17  2  0
 17 18  1  0
 18 19  2  0
 19 20  1  0
 20 21  1  0
 20 22  1  0
 20 23  1  0
 19 24  1  0
 24 25  2  0
 25 10  1  0
 25 16  1  0
  1 26  1  0
  1 27  1  0
  1 28  1  0
  3 29  1  0
  3 30  1  0
  3 31  1  0
  4 32  1  0
  4 33  1  0
  5 34  1  0
  5 35  1  0
  7 36  1  0
  7 37  1  0
  7 38  1  0
 13 39  1  0
 13 40  1  0
 15 41  1  0
 17 42  1  0
 18 43  1  0
 24 44  1  0
M  END
>  <UniqueID>  (71) 
69

>  <SMILES>  (71) 
CN(C)CCN(C)C(=O)n1c(C(N)=O)cc2ccc(C(F)(F)F)cc21

>  <Energy>  (71) 
79.60142109936493

>  <Genealogy>  (71) 
CN(C)CCN(C)C(=O)n1c(C(N)=O)cc2ccc(C(F)(F)F)cc21 (3D coordinates assigned)
CN(C)CCN(C)C(=O)n1c(C(N)=O)cc2ccc(C(F)(F)F)cc21 (optimized conformer: 79.60142109936493 kcal/mol)

>  <smiles>  (71) 
CN(C)CCN(C)C(=O)n1c(C(N)=O)cc2ccc(C(F)(F)F)cc21

>  <score_type>  (71) 
oracle

>  <origin>  (71) 
adg

>  <m_score__min__energy>  (71) 
-6.3200000000000003

>  <m_primary>  (71) 
energy

$$$$
71:0
     RDKit          3D

 46 48  0  0  0  0  0  0  0  0999 V2000
  149.4280  158.7740  132.9760 N   0  0  0  0  0  0  0  0  0  0  0  0
  148.2880  159.3650  132.3500 C   0  0  0  0  0  0  0  0  0  0  0  0
  148.4500  160.0770  131.3230 O   0  0  0  0  0  0  0  0  0  0  0  0
  146.9200  159.1160  132.8500 C   0  0  0  0  0  0  0  0  0  0  0  0
  145.9610  160.1140  132.9970 C   0  0  0  0  0  0  0  0  0  0  0  0
  144.8370  159.4720  133.4610 C   0  0  0  0  0  0  0  0  0  0  0  0
  143.5950  159.9890  133.8160 C   0  0  0  0  0  0  0  0  0  0  0  0
  142.6330  159.1020  134.3270 C   0  0  0  0  0  0  0  0  0  0  0  0
  142.9290  157.7240  134.4760 C   0  0  0  0  0  0  0  0  0  0  0  0
  141.9140  156.7950  135.0790 C   0  0  0  0  0  0  0  0  0  0  0  0
  140.5340  157.2920  134.7890 C   0  0  0  0  0  0  0  0  0  0  0  0
  139.8030  157.6990  135.7330 O   0  0  0  0  0  0  0  0  0  0  0  0
  140.0780  157.3590  133.4340 N   0  0  0  0  0  0  0  0  0  0  0  0
  139.2120  158.4170  132.9220 C   0  0  0  0  0  0  0  0  0  0  0  0
  138.7230  158.0750  131.5060 C   0  0  0  0  0  0  0  0  0  0  0  0
  137.8290  159.1960  130.9310 C   0  0  0  0  0  0  0  0  0  0  0  0
  137.9800  160.4730  131.6520 N   0  0  0  0  0  0  0  0  0  0  0  0
  139.3930  160.7670  131.9160 C   0  0  0  0  0  0  0  0  0  0  0  0
  139.9800  159.7530  132.9160 C   0  0  0  0  0  0  0  0  0  0  0  0
  144.2070  157.2380  134.1180 C   0  0  0  0  0  0  0  0  0  0  0  0
  145.1360  158.1390  133.5880 C   0  0  0  0  0  0  0  0  0  0  0  0
  146.4130  157.9050  133.2120 N   0  0  0  0  0  0  0  0  0  0  0  0
  147.1340  156.6650  133.3250 C   0  0  0  0  0  0  0  0  0  0  0  0
  147.9370  156.4960  134.2810 O   0  0  0  0  0  0  0  0  0  0  0  0
  147.0050  155.6000  132.2800 C   0  0  0  0  0  0  0  0  0  0  0  0
  145.5280  154.6410  132.5510 Cl  0  0  0  0  0  0  0  0  0  0  0  0
  150.3880  159.0080  132.6410 H   0  0  0  0  0  0  0  0  0  0  0  0
  149.3220  158.0330  133.7030 H   0  0  0  0  0  0  0  0  0  0  0  0
  146.0774  161.1874  132.7868 H   0  0  0  0  0  0  0  0  0  0  0  0
  143.3731  161.0601  133.7000 H   0  0  0  0  0  0  0  0  0  0  0  0
  141.6408  159.4804  134.6141 H   0  0  0  0  0  0  0  0  0  0  0  0
  142.0379  155.7903  134.6485 H   0  0  0  0  0  0  0  0  0  0  0  0
  142.0627  156.7536  136.1681 H   0  0  0  0  0  0  0  0  0  0  0  0
  138.3322  158.5084  133.5759 H   0  0  0  0  0  0  0  0  0  0  0  0
  139.5951  157.9407  130.8491 H   0  0  0  0  0  0  0  0  0  0  0  0
  138.1279  157.1514  131.5595 H   0  0  0  0  0  0  0  0  0  0  0  0
  138.0980  159.3539  129.8762 H   0  0  0  0  0  0  0  0  0  0  0  0
  136.7827  158.8749  131.0414 H   0  0  0  0  0  0  0  0  0  0  0  0
  137.5960  161.2350  131.0450 H   0  0  0  0  0  0  0  0  0  0  0  0
  139.9561  160.7119  130.9727 H   0  0  0  0  0  0  0  0  0  0  0  0
  139.4708  161.7760  132.3471 H   0  0  0  0  0  0  0  0  0  0  0  0
  141.0277  159.5563  132.6447 H   0  0  0  0  0  0  0  0  0  0  0  0
  139.8976  160.1901  133.9221 H   0  0  0  0  0  0  0  0  0  0  0  0
  144.4646  156.1771  134.2529 H   0  0  0  0  0  0  0  0  0  0  0  0
  146.9547  156.0706  131.2870 H   0  0  0  0  0  0  0  0  0  0  0  0
  147.8788  154.9344  132.3386 H   0  0  0  0  0  0  0  0  0  0  0  0
  1  2  1  0
  2  3  2  0
  2  4  1  0
  4  5  2  0
  5  6  1  0
  6  7  2  0
  7  8  1  0
  8  9  2  0
  9 10  1  0
 10 11  1  0
 11 12  2  0
 11 13  1  0
 13 14  1  0
 14 15  1  0
 15 16  1  0
 16 17  1  0
 17 18  1  0
 18 19  1  0
  9 20  1  0
 20 21  2  0
 21 22  1  0
 22 23  1  0
 23 24  2  0
 23 25  1  0
 25 26  1  0
 22  4  1  0
 21  6  1  0
 19 14  1  0
  1 27  1  0
  1 28  1  0
  5 29  1  0
  7 30  1  0
  8 31  1  0
 10 32  1  0
 10 33  1  0
 14 34  1  0
 15 35  1  0
 15 36  1  0
 16 37  1  0
 16 38  1  0
 17 39  1  0
 18 40  1  0
 18 41  1  0
 19 42  1  0
 19 43  1  0
 20 44  1  0
 25 45  1  0
 25 46  1  0
M  CHG  1  13  -1
M  END
>  <UniqueID>  (72) 
70

>  <SMILES>  (72) 
NC(=O)c1cc2ccc(CC(=O)[N-]C3CCNCC3)cc2n1C(=O)CCl

>  <Energy>  (72) 
85.77451590402846

>  <Genealogy>  (72) 
NC(=O)c1cc2ccc(CC(=O)[N-]C3CCNCC3)cc2n1C(=O)CCl (protonated)
NC(=O)c1cc2ccc(CC(=O)[N-]C3CCNCC3)cc2n1C(=O)CCl (3D coordinates assigned)
NC(=O)c1cc2ccc(CC(=O)[N-]C3CCNCC3)cc2n1C(=O)CCl (nonaromatic ring conformer: 85.77451590402846 kcal/mol)

>  <smiles>  (72) 
NC(=O)c1cc2ccc(CC(=O)NC3CCNCC3)cc2n1C(=O)CCl

>  <score_type>  (72) 
oracle

>  <origin>  (72) 
adg

>  <m_score__min__energy>  (72) 
-8.9000000000000004

>  <m_primary>  (72) 
energy

$$$$
72:0
     RDKit          3D

 43 45  0  0  0  0  0  0  0  0999 V2000
  149.9660  158.2270  132.4280 N   0  0  0  0  0  0  0  0  0  0  0  0
  148.9520  159.0740  131.8860 C   0  0  0  0  0  0  0  0  0  0  0  0
  149.1610  159.6670  130.7940 O   0  0  0  0  0  0  0  0  0  0  0  0
  147.6390  159.2110  132.5470 C   0  0  0  0  0  0  0  0  0  0  0  0
  147.0370  160.4400  132.8010 C   0  0  0  0  0  0  0  0  0  0  0  0
  145.8140  160.1370  133.3550 C   0  0  0  0  0  0  0  0  0  0  0  0
  144.8040  160.9820  133.8040 C   0  0  0  0  0  0  0  0  0  0  0  0
  143.6550  160.3960  134.3620 C   0  0  0  0  0  0  0  0  0  0  0  0
  143.5470  158.9880  134.4780 C   0  0  0  0  0  0  0  0  0  0  0  0
  142.3000  158.3720  135.0490 C   0  0  0  0  0  0  0  0  0  0  0  0
  141.1960  158.3970  134.0280 C   0  0  0  0  0  0  0  0  0  0  0  0
  141.4820  158.6700  132.6820 C   0  0  0  0  0  0  0  0  0  0  0  0
  140.4640  158.6530  131.7240 C   0  0  0  0  0  0  0  0  0  0  0  0
  139.1410  158.3460  132.0980 C   0  0  0  0  0  0  0  0  0  0  0  0
  138.0750  158.3130  131.1840 O   0  0  0  0  0  0  0  0  0  0  0  0
  136.9750  159.2240  131.1390 C   0  0  0  0  0  0  0  0  0  0  0  0
  137.3400  160.4850  130.3530 C   0  0  0  0  0  0  0  0  0  0  0  0
  138.3420  160.2220  129.4100 O   0  0  0  0  0  0  0  0  0  0  0  0
  138.8620  158.0710  133.4420 C   0  0  0  0  0  0  0  0  0  0  0  0
  139.8800  158.0890  134.4000 C   0  0  0  0  0  0  0  0  0  0  0  0
  144.5900  158.1620  134.0030 C   0  0  0  0  0  0  0  0  0  0  0  0
  145.7140  158.7700  133.4320 C   0  0  0  0  0  0  0  0  0  0  0  0
  146.8310  158.1870  132.9410 N   0  0  0  0  0  0  0  0  0  0  0  0
  147.1480  156.7840  132.9530 C   0  0  0  0  0  0  0  0  0  0  0  0
  146.3570  155.9450  132.4460 O   0  0  0  0  0  0  0  0  0  0  0  0
  148.3300  156.3370  133.5310 O   0  0  0  0  0  0  0  0  0  0  0  0
  150.9010  158.1690  131.9670 H   0  0  0  0  0  0  0  0  0  0  0  0
  149.7680  157.5970  133.2360 H   0  0  0  0  0  0  0  0  0  0  0  0
  147.4503  161.4397  132.6016 H   0  0  0  0  0  0  0  0  0  0  0  0
  144.9018  162.0748  133.7247 H   0  0  0  0  0  0  0  0  0  0  0  0
  142.8319  161.0363  134.7119 H   0  0  0  0  0  0  0  0  0  0  0  0
  142.5072  157.3303  135.3352 H   0  0  0  0  0  0  0  0  0  0  0  0
  141.9863  158.9479  135.9321 H   0  0  0  0  0  0  0  0  0  0  0  0
  142.5142  158.8990  132.3784 H   0  0  0  0  0  0  0  0  0  0  0  0
  140.6971  158.8804  130.6733 H   0  0  0  0  0  0  0  0  0  0  0  0
  136.1198  158.7318  130.6528 H   0  0  0  0  0  0  0  0  0  0  0  0
  136.7179  159.5145  132.1683 H   0  0  0  0  0  0  0  0  0  0  0  0
  136.4447  160.8545  129.8316 H   0  0  0  0  0  0  0  0  0  0  0  0
  137.7162  161.2392  131.0598 H   0  0  0  0  0  0  0  0  0  0  0  0
  138.3350  159.2410  129.2550 H   0  0  0  0  0  0  0  0  0  0  0  0
  137.8312  157.8384  133.7474 H   0  0  0  0  0  0  0  0  0  0  0  0
  139.6473  157.8604  135.4505 H   0  0  0  0  0  0  0  0  0  0  0  0
  144.5204  157.0669  134.0801 H   0  0  0  0  0  0  0  0  0  0  0  0
  1  2  1  0
  2  3  2  0
  2  4  1  0
  4  5  2  0
  5  6  1  0
  6  7  2  0
  7  8  1  0
  8  9  2  0
  9 10  1  0
 10 11  1  0
 11 12  2  0
 12 13  1  0
 13 14  2  0
 14 15  1  0
 15 16  1  0
 16 17  1  0
 17 18  1  0
 14 19  1  0
 19 20  2  0
  9 21  1  0
 21 22  2  0
 22 23  1  0
 23 24  1  0
 24 25  2  0
 24 26  1  0
 23  4  1  0
 22  6  1  0
 20 11  1  0
  1 27  1  0
  1 28  1  0
  5 29  1  0
  7 30  1  0
  8 31  1  0
 10 32  1  0
 10 33  1  0
 12 34  1  0
 13 35  1  0
 16 36  1  0
 16 37  1  0
 17 38  1  0
 17 39  1  0
 18 40  1  0
 19 41  1  0
 20 42  1  0
 21 43  1  0
M  CHG  1  26  -1
M  END
>  <UniqueID>  (73) 
71

>  <SMILES>  (73) 
NC(=O)c1cc2ccc(Cc3ccc(OCCO)cc3)cc2n1C(=O)[O-]

>  <Energy>  (73) 
83.05945021716585

>  <Genealogy>  (73) 
NC(=O)c1cc2ccc(Cc3ccc(OCCO)cc3)cc2n1C(=O)[O-] (protonated)
NC(=O)c1cc2ccc(Cc3ccc(OCCO)cc3)cc2n1C(=O)[O-] (3D coordinates assigned)
NC(=O)c1cc2ccc(Cc3ccc(OCCO)cc3)cc2n1C(=O)[O-] (optimized conformer: 83.05945021716585 kcal/mol)

>  <smiles>  (73) 
NC(=O)c1cc2ccc(Cc3ccc(OCCO)cc3)cc2n1C(=O)O

>  <score_type>  (73) 
oracle

>  <origin>  (73) 
adg

>  <m_score__min__energy>  (73) 
-7.8499999999999996

>  <m_primary>  (73) 
energy

$$$$
73:0
     RDKit          3D

 44 46  0  0  0  0  0  0  0  0999 V2000
  142.7440  154.3780  135.5940 N   0  0  0  0  0  0  0  0  0  0  0  0
  143.1710  153.9780  134.2960 C   0  0  0  0  0  0  0  0  0  0  0  0
  144.1100  154.6060  133.7430 O   0  0  0  0  0  0  0  0  0  0  0  0
  142.5300  152.8410  133.5930 C   0  0  0  0  0  0  0  0  0  0  0  0
  143.1350  151.5960  133.4230 C   0  0  0  0  0  0  0  0  0  0  0  0
  142.2070  150.8300  132.7480 C   0  0  0  0  0  0  0  0  0  0  0  0
  142.2660  149.5030  132.3450 C   0  0  0  0  0  0  0  0  0  0  0  0
  141.1490  148.9720  131.6730 C   0  0  0  0  0  0  0  0  0  0  0  0
  140.0080  149.7730  131.4010 C   0  0  0  0  0  0  0  0  0  0  0  0
  138.7960  149.1640  130.7420 C   0  0  0  0  0  0  0  0  0  0  0  0
  138.8370  147.7800  130.8050 F   0  0  0  0  0  0  0  0  0  0  0  0
  137.6390  149.5910  131.3710 F   0  0  0  0  0  0  0  0  0  0  0  0
  138.7620  149.5540  129.4140 F   0  0  0  0  0  0  0  0  0  0  0  0
  139.9790  151.1110  131.8520 C   0  0  0  0  0  0  0  0  0  0  0  0
  141.1010  151.6090  132.5300 C   0  0  0  0  0  0  0  0  0  0  0  0
  141.2780  152.8370  133.0550 N   0  0  0  0  0  0  0  0  0  0  0  0
  140.3310  153.9190  133.0230 C   0  0  0  0  0  0  0  0  0  0  0  0
  139.1040  153.6680  132.9520 O   0  0  0  0  0  0  0  0  0  0  0  0
  140.7780  155.3510  133.0520 C   0  0  0  0  0  0  0  0  0  0  0  0
  140.5470  155.9670  134.3610 N   0  0  0  0  0  0  0  0  0  0  0  0
  139.8660  157.2320  134.5100 C   0  0  0  0  0  0  0  0  0  0  0  0
  139.3580  157.8020  133.4980 O   0  0  0  0  0  0  0  0  0  0  0  0
  139.7160  157.8930  135.8640 C   0  0  2  0  0  0  0  0  0  0  0  0
  140.4840  159.2430  135.9270 C   0  0  0  0  0  0  0  0  0  0  0  0
  140.7660  159.5980  137.3240 N   0  0  0  0  0  0  0  0  0  0  0  0
  141.5680  158.5570  137.9940 C   0  0  0  0  0  0  0  0  0  0  0  0
  141.3670  157.1650  137.3740 C   0  0  0  0  0  0  0  0  0  0  0  0
  140.0350  156.9990  136.9280 O   0  0  0  0  0  0  0  0  0  0  0  0
  142.2040  155.2620  135.7320 H   0  0  0  0  0  0  0  0  0  0  0  0
  144.1378  151.2901  133.7559 H   0  0  0  0  0  0  0  0  0  0  0  0
  143.1555  148.8873  132.5441 H   0  0  0  0  0  0  0  0  0  0  0  0
  141.1599  147.9195  131.3533 H   0  0  0  0  0  0  0  0  0  0  0  0
  139.0986  151.7465  131.6759 H   0  0  0  0  0  0  0  0  0  0  0  0
  141.8532  155.3930  132.8236 H   0  0  0  0  0  0  0  0  0  0  0  0
  140.1928  155.9069  132.3046 H   0  0  0  0  0  0  0  0  0  0  0  0
  140.9380  155.4700  135.2000 H   0  0  0  0  0  0  0  0  0  0  0  0
  138.6547  158.1464  136.0036 H   0  0  0  0  0  0  0  0  0  0  0  0
  141.4320  159.1484  135.3771 H   0  0  0  0  0  0  0  0  0  0  0  0
  139.8652  160.0310  135.4730 H   0  0  0  0  0  0  0  0  0  0  0  0
  139.8500  159.6970  137.8250 H   0  0  0  0  0  0  0  0  0  0  0  0
  142.6315  158.8271  137.9161 H   0  0  0  0  0  0  0  0  0  0  0  0
  141.2380  158.5055  139.0421 H   0  0  0  0  0  0  0  0  0  0  0  0
  142.0500  157.0492  136.5196 H   0  0  0  0  0  0  0  0  0  0  0  0
  141.5785  156.4048  138.1405 H   0  0  0  0  0  0  0  0  0  0  0  0
  1  2  1  0
  2  3  2  0
  2  4  1  0
  4  5  2  0
  5  6  1  0
  6  7  2  0
  7  8  1  0
  8  9  2  0
  9 10  1  0
 10 11  1  0
 10 12  1  0
 10 13  1  0
  9 14  1  0
 14 15  2  0
 15 16  1  0
 16 17  1  0
 17 18  2  0
 17 19  1  0
 19 20  1  0
 20 21  1  0
 21 22  2  0
 21 23  1  0
 23 24  1  0
 24 25  1  0
 25 26  1  0
 26 27  1  0
 27 28  1  0
 16  4  1  0
 28 23  1  0
 15  6  1  0
  1 29  1  0
  5 30  1  0
  7 31  1  0
  8 32  1  0
 14 33  1  0
 19 34  1  0
 19 35  1  0
 20 36  1  0
 23 37  1  1
 24 38  1  0
 24 39  1  0
 25 40  1  0
 26 41  1  0
 26 42  1  0
 27 43  1  0
 27 44  1  0
M  CHG  1   1  -1
M  END
>  <UniqueID>  (74) 
72

>  <SMILES>  (74) 
[NH-]C(=O)c1cc2ccc(C(F)(F)F)cc2n1C(=O)CNC(=O)[C@@H]1CNCCO1

>  <Energy>  (74) 
89.47154663735839

>  <Genealogy>  (74) 
[NH-]C(=O)c1cc2ccc(C(F)(F)F)cc2n1C(=O)CNC(=O)[C@@H]1CNCCO1 (protonated)
[NH-]C(=O)c1cc2ccc(C(F)(F)F)cc2n1C(=O)CNC(=O)[C@@H]1CNCCO1 (3D coordinates assigned)
[NH-]C(=O)c1cc2ccc(C(F)(F)F)cc2n1C(=O)CNC(=O)[C@@H]1CNCCO1 (nonaromatic ring conformer: 89.47154663735839 kcal/mol)

>  <smiles>  (74) 
NC(=O)c1cc2ccc(C(F)(F)F)cc2n1C(=O)CNC(=O)[C@@H]1CNCCO1

>  <score_type>  (74) 
oracle

>  <origin>  (74) 
adg

>  <m_score__min__energy>  (74) 
-7.8499999999999996

>  <m_primary>  (74) 
energy

$$$$
74:0
     RDKit          3D

 34 37  0  0  0  0  0  0  0  0999 V2000
  146.1040  160.9650  133.7530 N   0  0  0  0  0  0  0  0  0  0  0  0
  145.2660  159.8180  133.6420 C   0  0  0  0  0  0  0  0  0  0  0  0
  144.0190  159.9480  133.7770 O   0  0  0  0  0  0  0  0  0  0  0  0
  145.8410  158.4750  133.4140 C   0  0  0  0  0  0  0  0  0  0  0  0
  145.0780  157.3110  133.3480 C   0  0  0  0  0  0  0  0  0  0  0  0
  145.9880  156.2850  133.2130 C   0  0  0  0  0  0  0  0  0  0  0  0
  145.7850  154.9160  133.0980 C   0  0  0  0  0  0  0  0  0  0  0  0
  146.9140  154.0930  132.9510 C   0  0  0  0  0  0  0  0  0  0  0  0
  148.2210  154.6410  132.9180 C   0  0  0  0  0  0  0  0  0  0  0  0
  149.3810  153.6740  132.7490 C   0  0  0  0  0  0  0  0  0  0  0  0
  149.2390  152.2980  133.3860 C   0  0  0  0  0  0  0  0  0  0  0  0
  149.1500  152.4510  131.8720 C   0  0  0  0  0  0  0  0  0  0  0  0
  148.3830  156.0470  133.0400 C   0  0  0  0  0  0  0  0  0  0  0  0
  147.2400  156.8380  133.1960 C   0  0  0  0  0  0  0  0  0  0  0  0
  147.1680  158.1810  133.3120 N   0  0  0  0  0  0  0  0  0  0  0  0
  148.2760  159.0900  133.2630 C   0  0  0  0  0  0  0  0  0  0  0  0
  148.9530  159.3080  134.3030 O   0  0  0  0  0  0  0  0  0  0  0  0
  148.6590  159.7310  131.9960 C   0  0  0  0  0  0  0  0  0  0  0  0
  149.2440  159.1190  130.9080 C   0  0  0  0  0  0  0  0  0  0  0  0
  149.3930  160.1430  129.9970 C   0  0  0  0  0  0  0  0  0  0  0  0
  148.9160  161.2870  130.5280 N   0  0  0  0  0  0  0  0  0  0  0  0
  148.4850  161.0020  131.7230 O   0  0  0  0  0  0  0  0  0  0  0  0
  146.7390  161.2440  132.9720 H   0  0  0  0  0  0  0  0  0  0  0  0
  143.9821  157.2286  133.3939 H   0  0  0  0  0  0  0  0  0  0  0  0
  144.7714  154.4892  133.1213 H   0  0  0  0  0  0  0  0  0  0  0  0
  146.7816  153.0048  132.8600 H   0  0  0  0  0  0  0  0  0  0  0  0
  150.1349  154.4743  132.7838 H   0  0  0  0  0  0  0  0  0  0  0  0
  150.1138  151.8086  133.8390 H   0  0  0  0  0  0  0  0  0  0  0  0
  148.5935  151.8633  134.1634 H   0  0  0  0  0  0  0  0  0  0  0  0
  149.9605  152.0719  131.2322 H   0  0  0  0  0  0  0  0  0  0  0  0
  148.4135  152.1724  131.1039 H   0  0  0  0  0  0  0  0  0  0  0  0
  149.3837  156.5029  133.0124 H   0  0  0  0  0  0  0  0  0  0  0  0
  149.5258  158.0619  130.7936 H   0  0  0  0  0  0  0  0  0  0  0  0
  149.8324  160.0425  128.9936 H   0  0  0  0  0  0  0  0  0  0  0  0
  1  2  1  0
  2  3  2  0
  2  4  1  0
  4  5  2  0
  5  6  1  0
  6  7  2  0
  7  8  1  0
  8  9  2  0
  9 10  1  0
 10 11  1  0
 11 12  1  0
  9 13  1  0
 13 14  2  0
 14 15  1  0
 15 16  1  0
 16 17  2  0
 16 18  1  0
 18 19  2  0
 19 20  1  0
 20 21  2  0
 21 22  1  0
 15  4  1  0
 22 18  1  0
 14  6  1  0
 12 10  1  0
  1 23  1  0
  5 24  1  0
  7 25  1  0
  8 26  1  0
 10 27  1  0
 11 28  1  0
 11 29  1  0
 12 30  1  0
 12 31  1  0
 13 32  1  0
 19 33  1  0
 20 34  1  0
M  CHG  1   1  -1
M  END
>  <UniqueID>  (75) 
73

>  <SMILES>  (75) 
[NH-]C(=O)c1cc2ccc(C3CC3)cc2n1C(=O)c1ccno1

>  <Energy>  (75) 
374.4689932353337

>  <Genealogy>  (75) 
[NH-]C(=O)c1cc2ccc(C3CC3)cc2n1C(=O)c1ccno1 (protonated)
[NH-]C(=O)c1cc2ccc(C3CC3)cc2n1C(=O)c1ccno1 (3D coordinates assigned)
[NH-]C(=O)c1cc2ccc(C3CC3)cc2n1C(=O)c1ccno1 (nonaromatic ring conformer: 374.4689932353337 kcal/mol)

>  <smiles>  (75) 
NC(=O)c1cc2ccc(C3CC3)cc2n1C(=O)c1ccno1

>  <score_type>  (75) 
oracle

>  <origin>  (75) 
adg

>  <m_score__min__energy>  (75) 
-7.5599999999999996

>  <m_primary>  (75) 
energy

$$$$
75:0
     RDKit          3D

 43 44  0  0  0  0  0  0  0  0999 V2000
  138.7100  160.0450  130.8640 C   0  0  0  0  0  0  0  0  0  0  0  0
  139.2590  159.5820  132.1810 C   0  0  0  0  0  0  0  0  0  0  0  0
  140.2370  160.1450  132.6490 O   0  0  0  0  0  0  0  0  0  0  0  0
  138.6410  158.4280  132.9290 C   0  0  0  0  0  0  0  0  0  0  0  0
  139.6070  157.8230  133.8690 N   0  0  0  0  0  0  0  0  0  0  0  0
  139.7310  156.3720  133.6630 C   0  0  0  0  0  0  0  0  0  0  0  0
  139.4750  158.2230  135.2950 C   0  0  0  0  0  0  0  0  0  0  0  0
  140.5550  159.1840  135.8560 C   0  0  0  0  0  0  0  0  0  0  0  0
  141.5570  158.5610  136.8430 C   0  0  0  0  0  0  0  0  0  0  0  0
  141.7330  157.0760  136.6430 C   0  0  0  0  0  0  0  0  0  0  0  0
  142.4640  156.5880  135.5300 C   0  0  0  0  0  0  0  0  0  0  0  0
  142.6380  155.2080  135.3350 C   0  0  0  0  0  0  0  0  0  0  0  0
  142.0720  154.3420  136.2630 C   0  0  0  0  0  0  0  0  0  0  0  0
  142.1050  152.9680  136.3270 C   0  0  0  0  0  0  0  0  0  0  0  0
  141.3860  152.6330  137.4720 C   0  0  0  0  0  0  0  0  0  0  0  0
  141.1010  151.2380  137.8740 C   0  0  0  0  0  0  0  0  0  0  0  0
  141.6130  150.7370  139.1070 N   0  0  0  0  0  0  0  0  0  0  0  0
  140.4410  150.4720  137.1230 O   0  0  0  0  0  0  0  0  0  0  0  0
  140.9310  153.7570  138.0980 N   0  0  0  0  0  0  0  0  0  0  0  0
  140.2000  153.8480  139.3310 C   0  0  0  0  0  0  0  0  0  0  0  0
  139.1210  154.4940  139.3850 O   0  0  0  0  0  0  0  0  0  0  0  0
  140.6630  153.2030  140.4710 O   0  0  0  0  0  0  0  0  0  0  0  0
  141.3570  154.7940  137.3430 C   0  0  0  0  0  0  0  0  0  0  0  0
  141.1890  156.1630  137.5760 C   0  0  0  0  0  0  0  0  0  0  0  0
  137.8798  160.7452  131.0386 H   0  0  0  0  0  0  0  0  0  0  0  0
  139.5029  160.5512  130.2938 H   0  0  0  0  0  0  0  0  0  0  0  0
  138.3448  159.1781  130.2938 H   0  0  0  0  0  0  0  0  0  0  0  0
  137.7700  158.7916  133.4939 H   0  0  0  0  0  0  0  0  0  0  0  0
  138.3377  157.6623  132.1998 H   0  0  0  0  0  0  0  0  0  0  0  0
  139.7743  155.8655  134.6385 H   0  0  0  0  0  0  0  0  0  0  0  0
  138.8609  156.0061  133.0982 H   0  0  0  0  0  0  0  0  0  0  0  0
  140.6506  156.1591  133.0982 H   0  0  0  0  0  0  0  0  0  0  0  0
  138.4983  158.7151  135.4132 H   0  0  0  0  0  0  0  0  0  0  0  0
  139.5949  157.2911  135.8669 H   0  0  0  0  0  0  0  0  0  0  0  0
  141.1246  159.5855  135.0049 H   0  0  0  0  0  0  0  0  0  0  0  0
  140.0076  159.9479  136.4278 H   0  0  0  0  0  0  0  0  0  0  0  0
  142.5326  159.0512  136.7088 H   0  0  0  0  0  0  0  0  0  0  0  0
  141.1585  158.7123  137.8571 H   0  0  0  0  0  0  0  0  0  0  0  0
  142.8995  157.2981  134.8116 H   0  0  0  0  0  0  0  0  0  0  0  0
  143.2050  154.8243  134.4740 H   0  0  0  0  0  0  0  0  0  0  0  0
  142.5954  152.2797  135.6229 H   0  0  0  0  0  0  0  0  0  0  0  0
  141.6270  151.3330  139.9630 H   0  0  0  0  0  0  0  0  0  0  0  0
  140.6467  156.5208  138.4637 H   0  0  0  0  0  0  0  0  0  0  0  0
  1  2  1  0
  2  3  2  0
  2  4  1  0
  4  5  1  0
  5  6  1  0
  5  7  1  0
  7  8  1  0
  8  9  1  0
  9 10  1  0
 10 11  2  0
 11 12  1  0
 12 13  2  0
 13 14  1  0
 14 15  2  0
 15 16  1  0
 16 17  1  0
 16 18  2  0
 15 19  1  0
 19 20  1  0
 20 21  2  0
 20 22  1  0
 19 23  1  0
 23 24  2  0
 24 10  1  0
 23 13  1  0
  1 25  1  0
  1 26  1  0
  1 27  1  0
  4 28  1  0
  4 29  1  0
  6 30  1  0
  6 31  1  0
  6 32  1  0
  7 33  1  0
  7 34  1  0
  8 35  1  0
  8 36  1  0
  9 37  1  0
  9 38  1  0
 11 39  1  0
 12 40  1  0
 14 41  1  0
 17 42  1  0
 24 43  1  0
M  CHG  2  17  -1  22  -1
M  END
>  <UniqueID>  (76) 
74

>  <SMILES>  (76) 
CC(=O)CN(C)CCCc1ccc2cc(C([NH-])=O)n(C(=O)[O-])c2c1

>  <Energy>  (76) 
83.50165272148341

>  <Genealogy>  (76) 
CC(=O)CN(C)CCCc1ccc2cc(C([NH-])=O)n(C(=O)[O-])c2c1 (protonated)
CC(=O)CN(C)CCCc1ccc2cc(C([NH-])=O)n(C(=O)[O-])c2c1 (3D coordinates assigned)
CC(=O)CN(C)CCCc1ccc2cc(C([NH-])=O)n(C(=O)[O-])c2c1 (optimized conformer: 83.50165272148341 kcal/mol)

>  <smiles>  (76) 
CC(=O)CN(C)CCCc1ccc2cc(C(N)=O)n(C(=O)O)c2c1

>  <score_type>  (76) 
oracle

>  <origin>  (76) 
adg

>  <m_score__min__energy>  (76) 
-7.1500000000000004

>  <m_primary>  (76) 
energy

$$$$
76:0
     RDKit          3D

 44 46  0  0  0  0  0  0  0  0999 V2000
  143.0260  160.6900  133.4490 N   0  0  0  0  0  0  0  0  0  0  0  0
  144.3910  160.9650  133.7530 C   0  0  0  0  0  0  0  0  0  0  0  0
  144.6850  162.0320  134.3560 O   0  0  0  0  0  0  0  0  0  0  0  0
  145.4560  159.9960  133.4230 C   0  0  0  0  0  0  0  0  0  0  0  0
  146.7790  160.3630  133.1880 C   0  0  0  0  0  0  0  0  0  0  0  0
  147.4620  159.1800  133.0180 C   0  0  0  0  0  0  0  0  0  0  0  0
  148.8110  158.9540  132.7630 C   0  0  0  0  0  0  0  0  0  0  0  0
  149.2400  157.6250  132.6200 C   0  0  0  0  0  0  0  0  0  0  0  0
  148.3160  156.5540  132.7160 C   0  0  0  0  0  0  0  0  0  0  0  0
  148.7930  155.1280  132.6050 C   0  0  0  0  0  0  0  0  0  0  0  0
  147.8000  154.1450  133.2410 C   0  0  0  0  0  0  0  0  0  0  0  0
  148.0930  152.7210  132.8440 C   0  0  0  0  0  0  0  0  0  0  0  0
  149.3840  152.1920  132.9840 C   0  0  0  0  0  0  0  0  0  0  0  0
  149.6520  150.8870  132.5670 C   0  0  0  0  0  0  0  0  0  0  0  0
  148.6240  150.1230  132.0100 C   0  0  0  0  0  0  0  0  0  0  0  0
  147.3770  150.6490  131.8730 N   0  0  0  0  0  0  0  0  0  0  0  0
  147.0940  151.9210  132.2700 C   0  0  0  0  0  0  0  0  0  0  0  0
  146.9560  156.8230  132.9790 C   0  0  0  0  0  0  0  0  0  0  0  0
  146.5610  158.1550  133.1410 C   0  0  0  0  0  0  0  0  0  0  0  0
  145.3230  158.6390  133.3880 N   0  0  0  0  0  0  0  0  0  0  0  0
  144.1220  157.8630  133.5170 C   0  0  0  0  0  0  0  0  0  0  0  0
  143.2250  157.9370  132.6350 O   0  0  0  0  0  0  0  0  0  0  0  0
  143.9670  157.0060  134.6100 O   0  0  0  0  0  0  0  0  0  0  0  0
  143.4000  155.7060  134.4980 C   0  0  0  0  0  0  0  0  0  0  0  0
  144.5100  154.6700  134.3810 C   0  0  0  0  0  0  0  0  0  0  0  0
  145.6110  155.0770  135.1140 F   0  0  0  0  0  0  0  0  0  0  0  0
  144.0660  153.4550  134.8670 F   0  0  0  0  0  0  0  0  0  0  0  0
  144.8750  154.5220  133.0540 F   0  0  0  0  0  0  0  0  0  0  0  0
  142.7690  160.0650  132.6540 H   0  0  0  0  0  0  0  0  0  0  0  0
  147.1908  161.3822  133.1470 H   0  0  0  0  0  0  0  0  0  0  0  0
  149.5195  159.7909  132.6761 H   0  0  0  0  0  0  0  0  0  0  0  0
  150.3028  157.4127  132.4317 H   0  0  0  0  0  0  0  0  0  0  0  0
  148.9137  154.8744  131.5414 H   0  0  0  0  0  0  0  0  0  0  0  0
  149.7495  155.0440  133.1418 H   0  0  0  0  0  0  0  0  0  0  0  0
  147.8655  154.2305  134.3357 H   0  0  0  0  0  0  0  0  0  0  0  0
  146.7906  154.3992  132.8852 H   0  0  0  0  0  0  0  0  0  0  0  0
  150.1853  152.8051  133.4222 H   0  0  0  0  0  0  0  0  0  0  0  0
  150.6619  150.4649  132.6759 H   0  0  0  0  0  0  0  0  0  0  0  0
  148.8234  149.0925  131.6810 H   0  0  0  0  0  0  0  0  0  0  0  0
  146.6210  150.0660  131.4490 H   0  0  0  0  0  0  0  0  0  0  0  0
  146.0781  152.3223  132.1399 H   0  0  0  0  0  0  0  0  0  0  0  0
  146.2243  156.0051  133.0548 H   0  0  0  0  0  0  0  0  0  0  0  0
  142.7940  155.4933  135.3910 H   0  0  0  0  0  0  0  0  0  0  0  0
  142.7646  155.6618  133.6012 H   0  0  0  0  0  0  0  0  0  0  0  0
  1  2  1  0
  2  3  2  0
  2  4  1  0
  4  5  2  0
  5  6  1  0
  6  7  2  0
  7  8  1  0
  8  9  2  0
  9 10  1  0
 10 11  1  0
 11 12  1  0
 12 13  2  0
 13 14  1  0
 14 15  2  0
 15 16  1  0
 16 17  2  0
  9 18  1  0
 18 19  2  0
 19 20  1  0
 20 21  1  0
 21 22  2  0
 21 23  1  0
 23 24  1  0
 24 25  1  0
 25 26  1  0
 25 27  1  0
 25 28  1  0
 20  4  1  0
 19  6  1  0
 17 12  1  0
  1 29  1  0
  5 30  1  0
  7 31  1  0
  8 32  1  0
 10 33  1  0
 10 34  1  0
 11 35  1  0
 11 36  1  0
 13 37  1  0
 14 38  1  0
 15 39  1  0
 16 40  1  0
 17 41  1  0
 18 42  1  0
 24 43  1  0
 24 44  1  0
M  CHG  2   1  -1  16   1
M  END
>  <UniqueID>  (77) 
75

>  <SMILES>  (77) 
[NH-]C(=O)c1cc2ccc(CCc3ccc[nH+]c3)cc2n1C(=O)OCC(F)(F)F

>  <Energy>  (77) 
76.41485667489165

>  <Genealogy>  (77) 
[NH-]C(=O)c1cc2ccc(CCc3ccc[nH+]c3)cc2n1C(=O)OCC(F)(F)F (protonated)
[NH-]C(=O)c1cc2ccc(CCc3ccc[nH+]c3)cc2n1C(=O)OCC(F)(F)F (3D coordinates assigned)
[NH-]C(=O)c1cc2ccc(CCc3ccc[nH+]c3)cc2n1C(=O)OCC(F)(F)F (optimized conformer: 76.41485667489165 kcal/mol)

>  <smiles>  (77) 
NC(=O)c1cc2ccc(CCc3cccnc3)cc2n1C(=O)OCC(F)(F)F

>  <score_type>  (77) 
oracle

>  <origin>  (77) 
adg

>  <m_score__min__energy>  (77) 
-7.29

>  <m_primary>  (77) 
energy

$$$$
77:0
     RDKit          3D

 32 34  0  0  0  0  0  0  0  0999 V2000
  149.9910  151.7040  132.1840 C   0  0  0  0  0  0  0  0  0  0  0  0
  149.0490  152.7120  132.6570 N   0  0  0  0  0  0  0  0  0  0  0  0
  149.1870  154.0440  132.5310 C   0  0  0  0  0  0  0  0  0  0  0  0
  148.0390  154.6500  133.0240 C   0  0  0  0  0  0  0  0  0  0  0  0
  147.7390  156.1040  133.0890 C   0  0  0  0  0  0  0  0  0  0  0  0
  148.7780  157.0600  132.9260 C   0  0  0  0  0  0  0  0  0  0  0  0
  148.5070  158.4370  132.9980 C   0  0  0  0  0  0  0  0  0  0  0  0
  147.1940  158.8340  133.2230 C   0  0  0  0  0  0  0  0  0  0  0  0
  146.6650  160.0960  133.3620 C   0  0  0  0  0  0  0  0  0  0  0  0
  145.3030  159.9020  133.5830 C   0  0  0  0  0  0  0  0  0  0  0  0
  144.3340  161.0120  133.7030 C   0  0  0  0  0  0  0  0  0  0  0  0
  142.9640  160.8320  133.3560 N   0  0  0  0  0  0  0  0  0  0  0  0
  144.7330  162.1490  134.0710 O   0  0  0  0  0  0  0  0  0  0  0  0
  145.0040  158.5710  133.5890 N   0  0  0  0  0  0  0  0  0  0  0  0
  143.7370  157.9530  133.8660 C   0  0  0  0  0  0  0  0  0  0  0  0
  143.5550  157.3290  134.9450 O   0  0  0  0  0  0  0  0  0  0  0  0
  142.7070  158.0190  132.9370 O   0  0  0  0  0  0  0  0  0  0  0  0
  146.1740  157.9320  133.3650 C   0  0  0  0  0  0  0  0  0  0  0  0
  146.4150  156.5530  133.3190 C   0  0  0  0  0  0  0  0  0  0  0  0
  147.2260  153.5970  133.4260 C   0  0  0  0  0  0  0  0  0  0  0  0
  147.8670  152.4400  133.1820 N   0  0  0  0  0  0  0  0  0  0  0  0
  150.4575  151.2048  133.0461 H   0  0  0  0  0  0  0  0  0  0  0  0
  149.4568  150.9602  131.5746 H   0  0  0  0  0  0  0  0  0  0  0  0
  150.7692  152.1867  131.5746 H   0  0  0  0  0  0  0  0  0  0  0  0
  150.0598  154.5642  132.1096 H   0  0  0  0  0  0  0  0  0  0  0  0
  149.8070  156.7178  132.7412 H   0  0  0  0  0  0  0  0  0  0  0  0
  149.3104  159.1790  132.8798 H   0  0  0  0  0  0  0  0  0  0  0  0
  147.2026  161.0543  133.3098 H   0  0  0  0  0  0  0  0  0  0  0  0
  142.6850  160.1620  132.6070 H   0  0  0  0  0  0  0  0  0  0  0  0
  145.5941  155.8342  133.4584 H   0  0  0  0  0  0  0  0  0  0  0  0
  146.2243  153.6937  133.8701 H   0  0  0  0  0  0  0  0  0  0  0  0
  147.4970  151.4800  133.3650 H   0  0  0  0  0  0  0  0  0  0  0  0
  1  2  1  0
  2  3  1  0
  3  4  2  0
  4  5  1  0
  5  6  2  0
  6  7  1  0
  7  8  2  0
  8  9  1  0
  9 10  2  0
 10 11  1  0
 11 12  1  0
 11 13  2  0
 10 14  1  0
 14 15  1  0
 15 16  2  0
 15 17  1  0
 14 18  1  0
 18 19  2  0
  4 20  1  0
 20 21  2  0
 21  2  1  0
 19  5  1  0
 18  8  1  0
  1 22  1  0
  1 23  1  0
  1 24  1  0
  3 25  1  0
  6 26  1  0
  7 27  1  0
  9 28  1  0
 12 29  1  0
 19 30  1  0
 20 31  1  0
 21 32  1  0
M  CHG  3  12  -1  17  -1  21   1
M  END
>  <UniqueID>  (78) 
76

>  <SMILES>  (78) 
Cn1cc(-c2ccc3cc(C([NH-])=O)n(C(=O)[O-])c3c2)c[nH+]1

>  <Energy>  (78) 
106.09045810716559

>  <Genealogy>  (78) 
Cn1cc(-c2ccc3cc(C([NH-])=O)n(C(=O)[O-])c3c2)c[nH+]1 (protonated)
Cn1cc(-c2ccc3cc(C([NH-])=O)n(C(=O)[O-])c3c2)c[nH+]1 (3D coordinates assigned)
Cn1cc(-c2ccc3cc(C([NH-])=O)n(C(=O)[O-])c3c2)c[nH+]1 (optimized conformer: 106.09045810716559 kcal/mol)

>  <smiles>  (78) 
Cn1cc(-c2ccc3cc(C(N)=O)n(C(=O)O)c3c2)cn1

>  <score_type>  (78) 
oracle

>  <origin>  (78) 
adg

>  <m_score__min__energy>  (78) 
-6.9000000000000004

>  <m_primary>  (78) 
energy

$$$$
78:0
     RDKit          3D

 44 46  0  0  0  0  0  0  0  0999 V2000
  148.8560  157.7080  132.7630 C   0  0  0  0  0  0  0  0  0  0  0  0
  147.6960  158.6100  133.0640 C   0  0  0  0  0  0  0  0  0  0  0  0
  147.9180  159.9790  133.3530 C   0  0  0  0  0  0  0  0  0  0  0  0
  146.8370  160.8420  133.6050 C   0  0  0  0  0  0  0  0  0  0  0  0
  145.5520  160.3090  133.5500 C   0  0  0  0  0  0  0  0  0  0  0  0
  144.3320  160.9130  133.7560 C   0  0  0  0  0  0  0  0  0  0  0  0
  143.3860  159.9080  133.5630 C   0  0  0  0  0  0  0  0  0  0  0  0
  141.9280  160.1440  133.5840 C   0  0  0  0  0  0  0  0  0  0  0  0
  141.1230  159.7160  132.4880 N   0  0  0  0  0  0  0  0  0  0  0  0
  141.3790  160.6900  134.5780 O   0  0  0  0  0  0  0  0  0  0  0  0
  143.9980  158.7270  133.2640 N   0  0  0  0  0  0  0  0  0  0  0  0
  143.3920  157.4380  133.0770 C   0  0  0  0  0  0  0  0  0  0  0  0
  142.8010  157.1750  131.9960 O   0  0  0  0  0  0  0  0  0  0  0  0
  143.5220  156.3660  134.1250 C   0  0  0  0  0  0  0  0  0  0  0  0
  142.2600  156.2050  134.8800 N   0  0  0  0  0  0  0  0  0  0  0  0
  141.7870  157.5090  135.4220 C   0  0  0  0  0  0  0  0  0  0  0  0
  140.2760  157.5140  135.6840 C   0  0  0  0  0  0  0  0  0  0  0  0
  139.4810  157.2920  134.3760 C   0  0  0  0  0  0  0  0  0  0  0  0
  139.1250  158.5790  133.7730 N   0  0  0  0  0  0  0  0  0  0  0  0
  140.2750  156.4390  133.3610 C   0  0  0  0  0  0  0  0  0  0  0  0
  141.2400  155.4830  134.0740 C   0  0  0  0  0  0  0  0  0  0  0  0
  145.3210  158.9920  133.2490 C   0  0  0  0  0  0  0  0  0  0  0  0
  146.3780  158.1100  132.9970 C   0  0  0  0  0  0  0  0  0  0  0  0
  149.3039  157.3597  133.7054 H   0  0  0  0  0  0  0  0  0  0  0  0
  148.5061  156.8424  132.1814 H   0  0  0  0  0  0  0  0  0  0  0  0
  149.6088  158.2604  132.1814 H   0  0  0  0  0  0  0  0  0  0  0  0
  148.9456  160.3704  133.3805 H   0  0  0  0  0  0  0  0  0  0  0  0
  147.0013  161.9044  133.8382 H   0  0  0  0  0  0  0  0  0  0  0  0
  144.1440  161.9648  134.0173 H   0  0  0  0  0  0  0  0  0  0  0  0
  141.4360  158.9430  131.8620 H   0  0  0  0  0  0  0  0  0  0  0  0
  143.7721  155.4132  133.6355 H   0  0  0  0  0  0  0  0  0  0  0  0
  144.3156  156.6587  134.8283 H   0  0  0  0  0  0  0  0  0  0  0  0
  142.3112  157.7105  136.3679 H   0  0  0  0  0  0  0  0  0  0  0  0
  142.0021  158.2843  134.6719 H   0  0  0  0  0  0  0  0  0  0  0  0
  140.0321  156.7093  136.3931 H   0  0  0  0  0  0  0  0  0  0  0  0
  139.9976  158.4940  136.0989 H   0  0  0  0  0  0  0  0  0  0  0  0
  138.5640  156.7429  134.6362 H   0  0  0  0  0  0  0  0  0  0  0  0
  139.3140  158.5270  132.7460 H   0  0  0  0  0  0  0  0  0  0  0  0
  139.7770  159.3080  134.1450 H   0  0  0  0  0  0  0  0  0  0  0  0
  139.5687  155.8509  132.7565 H   0  0  0  0  0  0  0  0  0  0  0  0
  140.8628  157.1150  132.7227 H   0  0  0  0  0  0  0  0  0  0  0  0
  140.6603  154.8288  134.7418 H   0  0  0  0  0  0  0  0  0  0  0  0
  141.7696  154.9040  133.3031 H   0  0  0  0  0  0  0  0  0  0  0  0
  146.1865  157.0546  132.7531 H   0  0  0  0  0  0  0  0  0  0  0  0
  1  2  1  0
  2  3  2  0
  3  4  1  0
  4  5  2  0
  5  6  1  0
  6  7  2  0
  7  8  1  0
  8  9  1  0
  8 10  2  0
  7 11  1  0
 11 12  1  0
 12 13  2  0
 12 14  1  0
 14 15  1  0
 15 16  1  0
 16 17  1  0
 17 18  1  0
 18 19  1  0
 18 20  1  0
 20 21  1  0
 11 22  1  0
 22 23  2  0
 23  2  1  0
 22  5  1  0
 21 15  1  0
  1 24  1  0
  1 25  1  0
  1 26  1  0
  3 27  1  0
  4 28  1  0
  6 29  1  0
  9 30  1  0
 14 31  1  0
 14 32  1  0
 16 33  1  0
 16 34  1  0
 17 35  1  0
 17 36  1  0
 18 37  1  0
 19 38  1  0
 19 39  1  0
 20 40  1  0
 20 41  1  0
 21 42  1  0
 21 43  1  0
 23 44  1  0
M  CHG  1   9  -1
M  END
>  <UniqueID>  (79) 
77

>  <SMILES>  (79) 
Cc1ccc2cc(C([NH-])=O)n(C(=O)CN3CCC(N)CC3)c2c1

>  <Energy>  (79) 
90.266470107326

>  <Genealogy>  (79) 
Cc1ccc2cc(C([NH-])=O)n(C(=O)CN3CCC(N)CC3)c2c1 (protonated)
Cc1ccc2cc(C([NH-])=O)n(C(=O)CN3CCC(N)CC3)c2c1 (3D coordinates assigned)
Cc1ccc2cc(C([NH-])=O)n(C(=O)CN3CCC(N)CC3)c2c1 (nonaromatic ring conformer: 90.266470107326 kcal/mol)

>  <smiles>  (79) 
Cc1ccc2cc(C(N)=O)n(C(=O)CN3CCC(N)CC3)c2c1

>  <score_type>  (79) 
oracle

>  <origin>  (79) 
adg

>  <m_score__min__energy>  (79) 
-7.0499999999999998

>  <m_primary>  (79) 
energy

$$$$
79:0
     RDKit          3D

 31 33  0  0  0  0  0  0  0  0999 V2000
  145.9630  163.0920  134.9320 N   0  0  0  0  0  0  0  0  0  0  0  0
  145.0490  162.3650  134.1160 C   0  0  0  0  0  0  0  0  0  0  0  0
  144.0670  162.9650  133.6040 O   0  0  0  0  0  0  0  0  0  0  0  0
  145.2700  160.9350  133.8160 C   0  0  0  0  0  0  0  0  0  0  0  0
  146.5110  160.4100  133.4640 C   0  0  0  0  0  0  0  0  0  0  0  0
  146.3180  159.0520  133.3620 C   0  0  0  0  0  0  0  0  0  0  0  0
  147.2150  158.0440  133.0270 C   0  0  0  0  0  0  0  0  0  0  0  0
  146.7340  156.7260  132.9690 C   0  0  0  0  0  0  0  0  0  0  0  0
  145.3680  156.4370  133.2360 C   0  0  0  0  0  0  0  0  0  0  0  0
  144.8190  155.0240  133.1670 C   0  0  0  0  0  0  0  0  0  0  0  0
  145.0860  154.2950  131.8550 C   0  0  0  0  0  0  0  0  0  0  0  0
  143.6620  154.2330  131.5180 N   0  0  0  0  0  0  0  0  0  0  0  0
  143.3500  154.9240  132.7710 C   0  0  0  0  0  0  0  0  0  0  0  0
  144.4900  157.4920  133.5720 C   0  0  0  0  0  0  0  0  0  0  0  0
  145.0010  158.7940  133.6410 C   0  0  0  0  0  0  0  0  0  0  0  0
  144.3430  159.9410  133.9190 N   0  0  0  0  0  0  0  0  0  0  0  0
  142.9330  160.0780  134.1670 C   0  0  0  0  0  0  0  0  0  0  0  0
  142.2030  160.7080  133.3590 O   0  0  0  0  0  0  0  0  0  0  0  0
  142.3690  159.5390  135.3180 O   0  0  0  0  0  0  0  0  0  0  0  0
  146.9910  163.0540  134.7520 H   0  0  0  0  0  0  0  0  0  0  0  0
  147.4473  160.9641  133.3019 H   0  0  0  0  0  0  0  0  0  0  0  0
  148.2698  158.2721  132.8138 H   0  0  0  0  0  0  0  0  0  0  0  0
  147.4227  155.9071  132.7138 H   0  0  0  0  0  0  0  0  0  0  0  0
  145.2037  154.6746  134.1365 H   0  0  0  0  0  0  0  0  0  0  0  0
  145.6803  154.8830  131.1401 H   0  0  0  0  0  0  0  0  0  0  0  0
  145.6694  153.3626  131.8736 H   0  0  0  0  0  0  0  0  0  0  0  0
  143.4270  154.8110  130.6770 H   0  0  0  0  0  0  0  0  0  0  0  0
  143.2980  153.2520  131.5030 H   0  0  0  0  0  0  0  0  0  0  0  0
  142.8683  155.9019  132.6239 H   0  0  0  0  0  0  0  0  0  0  0  0
  142.6404  154.4602  133.4719 H   0  0  0  0  0  0  0  0  0  0  0  0
  143.4271  157.2946  133.7752 H   0  0  0  0  0  0  0  0  0  0  0  0
  1  2  1  0
  2  3  2  0
  2  4  1  0
  4  5  2  0
  5  6  1  0
  6  7  2  0
  7  8  1  0
  8  9  2  0
  9 10  1  0
 10 11  1  0
 11 12  1  0
 12 13  1  0
  9 14  1  0
 14 15  2  0
 15 16  1  0
 16 17  1  0
 17 18  2  0
 17 19  1  0
 16  4  1  0
 15  6  1  0
 13 10  1  0
  1 20  1  0
  5 21  1  0
  7 22  1  0
  8 23  1  0
 10 24  1  0
 11 25  1  0
 11 26  1  0
 12 27  1  0
 12 28  1  0
 13 29  1  0
 13 30  1  0
 14 31  1  0
M  CHG  3   1  -1  12   1  19  -1
M  END
>  <UniqueID>  (80) 
78

>  <SMILES>  (80) 
[NH-]C(=O)c1cc2ccc(C3C[NH2+]C3)cc2n1C(=O)[O-]

>  <Energy>  (80) 
143.78884151393177

>  <Genealogy>  (80) 
[NH-]C(=O)c1cc2ccc(C3C[NH2+]C3)cc2n1C(=O)[O-] (protonated)
[NH-]C(=O)c1cc2ccc(C3C[NH2+]C3)cc2n1C(=O)[O-] (3D coordinates assigned)
[NH-]C(=O)c1cc2ccc(C3C[NH2+]C3)cc2n1C(=O)[O-] (nonaromatic ring conformer: 143.78884151393177 kcal/mol)

>  <smiles>  (80) 
NC(=O)c1cc2ccc(C3CNC3)cc2n1C(=O)O

>  <score_type>  (80) 
oracle

>  <origin>  (80) 
adg

>  <m_score__min__energy>  (80) 
-6.46

>  <m_primary>  (80) 
energy

$$$$
80:0
     RDKit          3D

 47 49  0  0  0  0  0  0  0  0999 V2000
  140.5060  154.1700  138.8570 C   0  0  0  0  0  0  0  0  0  0  0  0
  140.8940  155.5110  138.3110 C   0  0  0  0  0  0  0  0  0  0  0  0
  141.1540  156.5810  139.2020 C   0  0  0  0  0  0  0  0  0  0  0  0
  141.5460  157.8390  138.7140 C   0  0  0  0  0  0  0  0  0  0  0  0
  141.6860  157.9890  137.3360 C   0  0  0  0  0  0  0  0  0  0  0  0
  142.0180  159.1000  136.5910 C   0  0  0  0  0  0  0  0  0  0  0  0
  141.9870  158.6790  135.2590 C   0  0  0  0  0  0  0  0  0  0  0  0
  142.2910  159.5750  134.1200 C   0  0  0  0  0  0  0  0  0  0  0  0
  143.0180  159.1190  132.9790 N   0  0  0  0  0  0  0  0  0  0  0  0
  141.9210  160.7790  134.1600 O   0  0  0  0  0  0  0  0  0  0  0  0
  141.6610  157.3560  135.1880 N   0  0  0  0  0  0  0  0  0  0  0  0
  141.4970  156.5360  134.0150 C   0  0  0  0  0  0  0  0  0  0  0  0
  142.5160  156.0460  133.4520 O   0  0  0  0  0  0  0  0  0  0  0  0
  140.1910  156.3270  133.4360 N   0  0  0  0  0  0  0  0  0  0  0  0
  139.7870  154.9880  132.9930 C   0  0  0  0  0  0  0  0  0  0  0  0
  139.2250  157.4280  133.2980 C   0  0  0  0  0  0  0  0  0  0  0  0
  139.6250  158.3910  132.1630 C   0  0  2  0  0  0  0  0  0  0  0  0
  139.5040  159.8420  132.5930 C   0  0  0  0  0  0  0  0  0  0  0  0
  139.0540  160.5630  131.3410 C   0  0  0  0  0  0  0  0  0  0  0  0
  138.2540  159.6140  130.5520 N   0  0  0  0  0  0  0  0  0  0  0  0
  136.8170  159.7590  130.8580 C   0  0  0  0  0  0  0  0  0  0  0  0
  138.7330  158.2690  130.9190 C   0  0  0  0  0  0  0  0  0  0  0  0
  141.4660  156.9540  136.4660 C   0  0  0  0  0  0  0  0  0  0  0  0
  141.0600  155.6950  136.9220 C   0  0  0  0  0  0  0  0  0  0  0  0
  140.5161  154.2048  139.9564 H   0  0  0  0  0  0  0  0  0  0  0  0
  139.4958  153.9102  138.5076 H   0  0  0  0  0  0  0  0  0  0  0  0
  141.2213  153.4109  138.5076 H   0  0  0  0  0  0  0  0  0  0  0  0
  141.0481  156.4257  140.2858 H   0  0  0  0  0  0  0  0  0  0  0  0
  141.7363  158.6789  139.3984 H   0  0  0  0  0  0  0  0  0  0  0  0
  142.2570  160.1061  136.9660 H   0  0  0  0  0  0  0  0  0  0  0  0
  142.9560  158.1270  132.6600 H   0  0  0  0  0  0  0  0  0  0  0  0
  139.5956  154.3535  133.8710 H   0  0  0  0  0  0  0  0  0  0  0  0
  138.8714  155.0627  132.3879 H   0  0  0  0  0  0  0  0  0  0  0  0
  140.5911  154.5438  132.3879 H   0  0  0  0  0  0  0  0  0  0  0  0
  138.2329  157.0075  133.0771 H   0  0  0  0  0  0  0  0  0  0  0  0
  139.2092  157.9937  134.2413 H   0  0  0  0  0  0  0  0  0  0  0  0
  140.6614  158.1077  131.9270 H   0  0  0  0  0  0  0  0  0  0  0  0
  138.7590  159.9505  133.3950 H   0  0  0  0  0  0  0  0  0  0  0  0
  140.4463  160.2427  132.9947 H   0  0  0  0  0  0  0  0  0  0  0  0
  138.4433  161.4376  131.6095 H   0  0  0  0  0  0  0  0  0  0  0  0
  139.9206  160.9160  130.7627 H   0  0  0  0  0  0  0  0  0  0  0  0
  136.6740  159.7734  131.9486 H   0  0  0  0  0  0  0  0  0  0  0  0
  136.4433  160.6994  130.4267 H   0  0  0  0  0  0  0  0  0  0  0  0
  136.2630  158.9122  130.4267 H   0  0  0  0  0  0  0  0  0  0  0  0
  137.8749  157.6173  131.1404 H   0  0  0  0  0  0  0  0  0  0  0  0
  139.3051  157.8330  130.0868 H   0  0  0  0  0  0  0  0  0  0  0  0
  140.8753  154.8712  136.2168 H   0  0  0  0  0  0  0  0  0  0  0  0
  1  2  1  0
  2  3  2  0
  3  4  1  0
  4  5  2  0
  5  6  1  0
  6  7  2  0
  7  8  1  0
  8  9  1  0
  8 10  2  0
  7 11  1  0
 11 12  1  0
 12 13  2  0
 12 14  1  0
 14 15  1  0
 14 16  1  0
 16 17  1  0
 17 18  1  0
 18 19  1  0
 19 20  1  0
 20 21  1  0
 20 22  1  0
 11 23  1  0
 23 24  2  0
 24  2  1  0
 23  5  1  0
 22 17  1  0
  1 25  1  0
  1 26  1  0
  1 27  1  0
  3 28  1  0
  4 29  1  0
  6 30  1  0
  9 31  1  0
 15 32  1  0
 15 33  1  0
 15 34  1  0
 16 35  1  0
 16 36  1  0
 17 37  1  6
 18 38  1  0
 18 39  1  0
 19 40  1  0
 19 41  1  0
 21 42  1  0
 21 43  1  0
 21 44  1  0
 22 45  1  0
 22 46  1  0
 24 47  1  0
M  CHG  1   9  -1
M  END
>  <UniqueID>  (81) 
79

>  <SMILES>  (81) 
Cc1ccc2cc(C([NH-])=O)n(C(=O)N(C)C[C@@H]3CCN(C)C3)c2c1

>  <Energy>  (81) 
87.50168079040999

>  <Genealogy>  (81) 
Cc1ccc2cc(C([NH-])=O)n(C(=O)N(C)CC3CCN(C)C3)c2c1 (protonated)
Cc1ccc2cc(C([NH-])=O)n(C(=O)N(C)C[C@@H]3CCN(C)C3)c2c1 (chirality)
Cc1ccc2cc(C([NH-])=O)n(C(=O)N(C)C[C@@H]3CCN(C)C3)c2c1 (3D coordinates assigned)
Cc1ccc2cc(C([NH-])=O)n(C(=O)N(C)C[C@@H]3CCN(C)C3)c2c1 (nonaromatic ring conformer: 87.50168079040999 kcal/mol)

>  <smiles>  (81) 
Cc1ccc2cc(C(N)=O)n(C(=O)N(C)CC3CCN(C)C3)c2c1

>  <score_type>  (81) 
oracle

>  <origin>  (81) 
adg

>  <m_score__min__energy>  (81) 
-7.7400000000000002

>  <m_primary>  (81) 
energy

$$$$
81:0
     RDKit          3D

 44 46  0  0  0  0  0  0  0  0999 V2000
  138.5210  159.1310  131.3570 C   0  0  0  0  0  0  0  0  0  0  0  0
  138.0440  158.2930  132.4050 O   0  0  0  0  0  0  0  0  0  0  0  0
  138.8860  157.4570  133.1460 C   0  0  0  0  0  0  0  0  0  0  0  0
  138.8280  156.2050  132.9940 O   0  0  0  0  0  0  0  0  0  0  0  0
  139.8410  158.0440  134.1120 C   0  0  0  0  0  0  0  0  0  0  0  0
  139.4950  158.2130  135.4610 C   0  0  0  0  0  0  0  0  0  0  0  0
  140.3820  158.7600  136.3330 N   0  0  0  0  0  0  0  0  0  0  0  0
  141.6210  159.1600  135.9430 C   0  0  0  0  0  0  0  0  0  0  0  0
  142.0230  159.0170  134.6070 C   0  0  0  0  0  0  0  0  0  0  0  0
  143.3700  159.4570  134.1620 C   0  0  0  0  0  0  0  0  0  0  0  0
  143.7200  160.8340  134.1650 C   0  0  0  0  0  0  0  0  0  0  0  0
  145.0050  161.2520  133.7720 C   0  0  0  0  0  0  0  0  0  0  0  0
  145.9170  160.2770  133.3820 C   0  0  0  0  0  0  0  0  0  0  0  0
  147.2350  160.3910  132.9950 C   0  0  0  0  0  0  0  0  0  0  0  0
  147.6650  159.0850  132.7540 C   0  0  0  0  0  0  0  0  0  0  0  0
  149.0140  158.7160  132.2660 C   0  0  0  0  0  0  0  0  0  0  0  0
  149.3110  157.3780  131.8620 N   0  0  0  0  0  0  0  0  0  0  0  0
  149.9240  159.5860  132.2170 O   0  0  0  0  0  0  0  0  0  0  0  0
  146.6490  158.2070  132.9780 N   0  0  0  0  0  0  0  0  0  0  0  0
  146.6970  156.7750  132.9380 C   0  0  0  0  0  0  0  0  0  0  0  0
  147.0060  156.1910  131.8650 O   0  0  0  0  0  0  0  0  0  0  0  0
  146.2870  155.9700  134.1330 C   0  0  0  0  0  0  0  0  0  0  0  0
  147.7520  155.2110  134.9170 S   0  0  0  0  0  0  0  0  0  0  0  0
  148.0540  153.9830  133.6040 C   0  0  0  0  0  0  0  0  0  0  0  0
  145.5910  158.9490  133.3600 C   0  0  0  0  0  0  0  0  0  0  0  0
  144.3250  158.5010  133.7420 C   0  0  0  0  0  0  0  0  0  0  0  0
  141.1170  158.4490  133.6930 C   0  0  0  0  0  0  0  0  0  0  0  0
  139.0213  160.0100  131.7894 H   0  0  0  0  0  0  0  0  0  0  0  0
  139.2356  158.5708  130.7361 H   0  0  0  0  0  0  0  0  0  0  0  0
  137.6745  159.4594  130.7361 H   0  0  0  0  0  0  0  0  0  0  0  0
  138.5011  157.9013  135.8145 H   0  0  0  0  0  0  0  0  0  0  0  0
  142.3117  159.5979  136.6786 H   0  0  0  0  0  0  0  0  0  0  0  0
  142.9774  161.5826  134.4783 H   0  0  0  0  0  0  0  0  0  0  0  0
  145.2797  162.3171  133.7732 H   0  0  0  0  0  0  0  0  0  0  0  0
  147.8233  161.3153  132.8968 H   0  0  0  0  0  0  0  0  0  0  0  0
  150.2750  157.1280  131.5520 H   0  0  0  0  0  0  0  0  0  0  0  0
  148.5720  156.6410  131.8240 H   0  0  0  0  0  0  0  0  0  0  0  0
  145.7861  156.6272  134.8591 H   0  0  0  0  0  0  0  0  0  0  0  0
  145.6003  155.1736  133.8102 H   0  0  0  0  0  0  0  0  0  0  0  0
  148.2931  153.0106  134.0593 H   0  0  0  0  0  0  0  0  0  0  0  0
  147.1534  153.8842  132.9802 H   0  0  0  0  0  0  0  0  0  0  0  0
  148.8977  154.3132  132.9802 H   0  0  0  0  0  0  0  0  0  0  0  0
  144.0758  157.4299  133.7171 H   0  0  0  0  0  0  0  0  0  0  0  0
  141.4116  158.3214  132.6409 H   0  0  0  0  0  0  0  0  0  0  0  0
  1  2  1  0
  2  3  1  0
  3  4  2  0
  3  5  1  0
  5  6  2  0
  6  7  1  0
  7  8  2  0
  8  9  1  0
  9 10  1  0
 10 11  2  0
 11 12  1  0
 12 13  2  0
 13 14  1  0
 14 15  2  0
 15 16  1  0
 16 17  1  0
 16 18  2  0
 15 19  1  0
 19 20  1  0
 20 21  2  0
 20 22  1  0
 22 23  1  0
 23 24  1  0
 19 25  1  0
 25 26  2  0
  9 27  2  0
 27  5  1  0
 26 10  1  0
 25 13  1  0
  1 28  1  0
  1 29  1  0
  1 30  1  0
  6 31  1  0
  8 32  1  0
 11 33  1  0
 12 34  1  0
 14 35  1  0
 17 36  1  0
 17 37  1  0
 22 38  1  0
 22 39  1  0
 24 40  1  0
 24 41  1  0
 24 42  1  0
 26 43  1  0
 27 44  1  0
M  END
>  <UniqueID>  (82) 
80

>  <SMILES>  (82) 
COC(=O)c1cncc(-c2ccc3cc(C(N)=O)n(C(=O)CSC)c3c2)c1

>  <Energy>  (82) 
84.8146373674048

>  <Genealogy>  (82) 
COC(=O)c1cncc(-c2ccc3cc(C(N)=O)n(C(=O)CSC)c3c2)c1 (3D coordinates assigned)
COC(=O)c1cncc(-c2ccc3cc(C(N)=O)n(C(=O)CSC)c3c2)c1 (optimized conformer: 84.8146373674048 kcal/mol)

>  <smiles>  (82) 
COC(=O)c1cncc(-c2ccc3cc(C(N)=O)n(C(=O)CSC)c3c2)c1

>  <score_type>  (82) 
oracle

>  <origin>  (82) 
adg

>  <m_score__min__energy>  (82) 
-8.0999999999999996

>  <m_primary>  (82) 
energy

$$$$
82:0
     RDKit          3D

 54 57  0  0  0  0  0  0  0  0999 V2000
  148.8470  152.2040  132.2830 C   0  0  0  0  0  0  0  0  0  0  0  0
  147.8770  152.9810  132.9760 O   0  0  0  0  0  0  0  0  0  0  0  0
  146.5000  152.7590  132.8510 C   0  0  0  0  0  0  0  0  0  0  0  0
  146.0560  152.1160  131.8590 O   0  0  0  0  0  0  0  0  0  0  0  0
  145.5920  153.2610  133.8480 N   0  0  0  0  0  0  0  0  0  0  0  0
  144.1550  152.9690  133.7210 C   0  0  0  0  0  0  0  0  0  0  0  0
  143.3540  153.5340  134.9000 C   0  0  0  0  0  0  0  0  0  0  0  0
  143.7350  154.9940  135.1690 C   0  0  0  0  0  0  0  0  0  0  0  0
  143.3100  155.7910  134.0630 O   0  0  0  0  0  0  0  0  0  0  0  0
  144.1480  156.1650  133.0070 C   0  0  0  0  0  0  0  0  0  0  0  0
  144.2400  155.4330  131.9860 O   0  0  0  0  0  0  0  0  0  0  0  0
  144.9080  157.3850  133.1020 N   0  0  0  0  0  0  0  0  0  0  0  0
  146.2640  157.5310  133.0880 C   0  0  0  0  0  0  0  0  0  0  0  0
  147.2440  156.4580  132.8630 C   0  0  0  0  0  0  0  0  0  0  0  0
  147.0410  155.4870  131.8360 N   0  0  0  0  0  0  0  0  0  0  0  0
  148.3080  156.4370  133.5360 O   0  0  0  0  0  0  0  0  0  0  0  0
  146.6250  158.8450  133.3680 C   0  0  0  0  0  0  0  0  0  0  0  0
  145.4360  159.5190  133.5290 C   0  0  0  0  0  0  0  0  0  0  0  0
  145.1990  160.8680  133.7860 C   0  0  0  0  0  0  0  0  0  0  0  0
  143.8650  161.2990  133.8680 C   0  0  0  0  0  0  0  0  0  0  0  0
  142.7990  160.3800  133.6980 C   0  0  0  0  0  0  0  0  0  0  0  0
  141.3760  160.8590  133.7240 C   0  0  0  0  0  0  0  0  0  0  0  0
  140.4940  159.8280  133.1870 N   0  0  0  0  0  0  0  0  0  0  0  0
  139.9590  158.8030  133.8780 C   0  0  0  0  0  0  0  0  0  0  0  0
  139.2190  158.0350  133.0060 C   0  0  0  0  0  0  0  0  0  0  0  0
  139.3600  158.6580  131.7810 C   0  0  0  0  0  0  0  0  0  0  0  0
  140.1460  159.7450  131.9130 N   0  0  0  0  0  0  0  0  0  0  0  0
  143.0780  159.0230  133.4300 C   0  0  0  0  0  0  0  0  0  0  0  0
  144.4160  158.6170  133.3660 C   0  0  0  0  0  0  0  0  0  0  0  0
  145.2620  155.1720  135.3950 C   0  0  0  0  0  0  0  0  0  0  0  0
  146.0980  153.9260  135.0590 C   0  0  0  0  0  0  0  0  0  0  0  0
  149.4911  151.6880  133.0102 H   0  0  0  0  0  0  0  0  0  0  0  0
  148.3383  151.4607  131.6515 H   0  0  0  0  0  0  0  0  0  0  0  0
  149.4614  152.8626  131.6515 H   0  0  0  0  0  0  0  0  0  0  0  0
  143.7813  153.4177  132.7888 H   0  0  0  0  0  0  0  0  0  0  0  0
  144.0270  151.8765  133.7123 H   0  0  0  0  0  0  0  0  0  0  0  0
  142.2806  153.4790  134.6658 H   0  0  0  0  0  0  0  0  0  0  0  0
  143.5819  152.9398  135.7972 H   0  0  0  0  0  0  0  0  0  0  0  0
  143.2334  155.3156  136.0936 H   0  0  0  0  0  0  0  0  0  0  0  0
  146.2390  155.5710  131.1740 H   0  0  0  0  0  0  0  0  0  0  0  0
  147.7270  154.7100  131.7040 H   0  0  0  0  0  0  0  0  0  0  0  0
  147.6422  159.2568  133.4443 H   0  0  0  0  0  0  0  0  0  0  0  0
  146.0318  161.5740  133.9206 H   0  0  0  0  0  0  0  0  0  0  0  0
  143.6454  162.3585  134.0658 H   0  0  0  0  0  0  0  0  0  0  0  0
  141.0857  161.0831  134.7611 H   0  0  0  0  0  0  0  0  0  0  0  0
  141.2885  161.7664  133.1084 H   0  0  0  0  0  0  0  0  0  0  0  0
  140.0903  158.6121  134.9533 H   0  0  0  0  0  0  0  0  0  0  0  0
  138.6429  157.1262  133.2346 H   0  0  0  0  0  0  0  0  0  0  0  0
  138.9007  158.3186  130.8409 H   0  0  0  0  0  0  0  0  0  0  0  0
  142.2628  158.3009  133.2749 H   0  0  0  0  0  0  0  0  0  0  0  0
  145.6100  156.0019  134.7624 H   0  0  0  0  0  0  0  0  0  0  0  0
  145.4022  155.3669  136.4685 H   0  0  0  0  0  0  0  0  0  0  0  0
  147.1427  154.2279  134.8935 H   0  0  0  0  0  0  0  0  0  0  0  0
  146.0288  153.2208  135.9004 H   0  0  0  0  0  0  0  0  0  0  0  0
  1  2  1  0
  2  3  1  0
  3  4  2  0
  3  5  1  0
  5  6  1  0
  6  7  1  0
  7  8  1  0
  8  9  1  0
  9 10  1  0
 10 11  2  0
 10 12  1  0
 12 13  1  0
 13 14  1  0
 14 15  1  0
 14 16  2  0
 13 17  2  0
 17 18  1  0
 18 19  2  0
 19 20  1  0
 20 21  2  0
 21 22  1  0
 22 23  1  0
 23 24  1  0
 24 25  2  0
 25 26  1  0
 26 27  2  0
 21 28  1  0
 28 29  2  0
  8 30  1  0
 30 31  1  0
 31  5  1  0
 29 12  1  0
 29 18  1  0
 27 23  1  0
  1 32  1  0
  1 33  1  0
  1 34  1  0
  6 35  1  0
  6 36  1  0
  7 37  1  0
  7 38  1  0
  8 39  1  0
 15 40  1  0
 15 41  1  0
 17 42  1  0
 19 43  1  0
 20 44  1  0
 22 45  1  0
 22 46  1  0
 24 47  1  0
 25 48  1  0
 26 49  1  0
 28 50  1  0
 30 51  1  0
 30 52  1  0
 31 53  1  0
 31 54  1  0
M  END
>  <UniqueID>  (83) 
81

>  <SMILES>  (83) 
COC(=O)N1CCC(OC(=O)n2c(C(N)=O)cc3ccc(Cn4cccn4)cc32)CC1

>  <Energy>  (83) 
120.77746728560044

>  <Genealogy>  (83) 
COC(=O)N1CCC(OC(=O)n2c(C(N)=O)cc3ccc(Cn4cccn4)cc32)CC1 (3D coordinates assigned)
COC(=O)N1CCC(OC(=O)n2c(C(N)=O)cc3ccc(Cn4cccn4)cc32)CC1 (nonaromatic ring conformer: 120.77746728560044 kcal/mol)

>  <smiles>  (83) 
COC(=O)N1CCC(OC(=O)n2c(C(N)=O)cc3ccc(Cn4cccn4)cc32)CC1

>  <score_type>  (83) 
oracle

>  <origin>  (83) 
adg

>  <m_score__min__energy>  (83) 
-9.5800000000000001

>  <m_primary>  (83) 
energy

$$$$
83:0
     RDKit          3D

 31 32  0  0  0  0  0  0  0  0999 V2000
  148.4680  157.6680  134.3890 N   0  0  0  0  0  0  0  0  0  0  0  0
  147.8380  158.5490  133.4590 C   0  0  0  0  0  0  0  0  0  0  0  0
  148.5110  159.0260  132.5050 O   0  0  0  0  0  0  0  0  0  0  0  0
  146.3970  158.8560  133.5540 C   0  0  0  0  0  0  0  0  0  0  0  0
  145.8990  160.1450  133.7190 C   0  0  0  0  0  0  0  0  0  0  0  0
  144.5300  160.0120  133.6760 C   0  0  0  0  0  0  0  0  0  0  0  0
  143.5370  160.9800  133.7860 C   0  0  0  0  0  0  0  0  0  0  0  0
  142.1980  160.5580  133.7320 C   0  0  0  0  0  0  0  0  0  0  0  0
  141.8750  159.1850  133.5940 C   0  0  0  0  0  0  0  0  0  0  0  0
  140.4320  158.7600  133.4940 C   0  0  0  0  0  0  0  0  0  0  0  0
  139.8690  158.6650  134.7560 F   0  0  0  0  0  0  0  0  0  0  0  0
  139.7320  159.6960  132.7570 F   0  0  0  0  0  0  0  0  0  0  0  0
  140.3190  157.5260  132.8780 F   0  0  0  0  0  0  0  0  0  0  0  0
  142.9150  158.2340  133.4640 C   0  0  0  0  0  0  0  0  0  0  0  0
  144.2400  158.6830  133.5040 C   0  0  0  0  0  0  0  0  0  0  0  0
  145.3800  157.9570  133.4300 N   0  0  0  0  0  0  0  0  0  0  0  0
  145.4910  156.5260  133.3690 C   0  0  0  0  0  0  0  0  0  0  0  0
  144.7190  155.8630  132.6240 O   0  0  0  0  0  0  0  0  0  0  0  0
  146.4520  155.8700  134.1480 O   0  0  0  0  0  0  0  0  0  0  0  0
  146.2390  154.5970  134.7530 C   0  0  0  0  0  0  0  0  0  0  0  0
  147.1600  154.4090  135.9160 C   0  0  0  0  0  0  0  0  0  0  0  0
  148.0670  155.2510  136.1460 O   0  0  0  0  0  0  0  0  0  0  0  0
  147.0370  153.2910  136.7290 O   0  0  0  0  0  0  0  0  0  0  0  0
  147.9080  157.1310  135.0870 H   0  0  0  0  0  0  0  0  0  0  0  0
  149.4940  157.4850  134.3250 H   0  0  0  0  0  0  0  0  0  0  0  0
  146.4760  161.0716  133.8547 H   0  0  0  0  0  0  0  0  0  0  0  0
  143.7922  162.0426  133.9113 H   0  0  0  0  0  0  0  0  0  0  0  0
  141.3906  161.3022  133.7976 H   0  0  0  0  0  0  0  0  0  0  0  0
  142.6870  157.1657  133.3344 H   0  0  0  0  0  0  0  0  0  0  0  0
  145.1978  154.5316  135.1016 H   0  0  0  0  0  0  0  0  0  0  0  0
  146.4401  153.8117  134.0095 H   0  0  0  0  0  0  0  0  0  0  0  0
  1  2  1  0
  2  3  2  0
  2  4  1  0
  4  5  2  0
  5  6  1  0
  6  7  2  0
  7  8  1  0
  8  9  2  0
  9 10  1  0
 10 11  1  0
 10 12  1  0
 10 13  1  0
  9 14  1  0
 14 15  2  0
 15 16  1  0
 16 17  1  0
 17 18  2  0
 17 19  1  0
 19 20  1  0
 20 21  1  0
 21 22  2  0
 21 23  1  0
 16  4  1  0
 15  6  1  0
  1 24  1  0
  1 25  1  0
  5 26  1  0
  7 27  1  0
  8 28  1  0
 14 29  1  0
 20 30  1  0
 20 31  1  0
M  CHG  1  23  -1
M  END
>  <UniqueID>  (84) 
82

>  <SMILES>  (84) 
NC(=O)c1cc2ccc(C(F)(F)F)cc2n1C(=O)OCC(=O)[O-]

>  <Energy>  (84) 
68.85648951823775

>  <Genealogy>  (84) 
NC(=O)c1cc2ccc(C(F)(F)F)cc2n1C(=O)OCC(=O)[O-] (protonated)
NC(=O)c1cc2ccc(C(F)(F)F)cc2n1C(=O)OCC(=O)[O-] (3D coordinates assigned)
NC(=O)c1cc2ccc(C(F)(F)F)cc2n1C(=O)OCC(=O)[O-] (optimized conformer: 68.85648951823775 kcal/mol)

>  <smiles>  (84) 
NC(=O)c1cc2ccc(C(F)(F)F)cc2n1C(=O)OCC(=O)O

>  <score_type>  (84) 
oracle

>  <origin>  (84) 
adg

>  <m_score__min__energy>  (84) 
-5.7800000000000002

>  <m_primary>  (84) 
energy

$$$$
84:0
     RDKit          3D

 30 32  0  0  0  0  0  0  0  0999 V2000
  143.1810  160.6760  133.3710 N   0  0  0  0  0  0  0  0  0  0  0  0
  144.5680  160.8160  133.6710 C   0  0  0  0  0  0  0  0  0  0  0  0
  144.9730  161.8660  134.2370 O   0  0  0  0  0  0  0  0  0  0  0  0
  145.5220  159.7260  133.3820 C   0  0  0  0  0  0  0  0  0  0  0  0
  146.8660  159.9440  133.0880 C   0  0  0  0  0  0  0  0  0  0  0  0
  147.4230  158.6910  132.9780 C   0  0  0  0  0  0  0  0  0  0  0  0
  148.7300  158.3170  132.6870 C   0  0  0  0  0  0  0  0  0  0  0  0
  149.0220  156.9450  132.6080 C   0  0  0  0  0  0  0  0  0  0  0  0
  148.0070  155.9730  132.8110 C   0  0  0  0  0  0  0  0  0  0  0  0
  148.3240  154.5250  132.7120 C   0  0  0  0  0  0  0  0  0  0  0  0
  149.5750  154.0840  132.2560 C   0  0  0  0  0  0  0  0  0  0  0  0
  149.8430  152.7550  132.1770 N   0  0  0  0  0  0  0  0  0  0  0  0
  148.9130  151.8310  132.5300 C   0  0  0  0  0  0  0  0  0  0  0  0
  147.6920  152.2290  132.9740 N   0  0  0  0  0  0  0  0  0  0  0  0
  147.3820  153.5490  133.0720 C   0  0  0  0  0  0  0  0  0  0  0  0
  146.6890  156.3970  133.1030 C   0  0  0  0  0  0  0  0  0  0  0  0
  146.4320  157.7700  133.1940 C   0  0  0  0  0  0  0  0  0  0  0  0
  145.2550  158.3900  133.4420 N   0  0  0  0  0  0  0  0  0  0  0  0
  143.9790  157.7570  133.6240 C   0  0  0  0  0  0  0  0  0  0  0  0
  143.0800  157.8700  132.7500 O   0  0  0  0  0  0  0  0  0  0  0  0
  143.7140  157.0350  134.7820 O   0  0  0  0  0  0  0  0  0  0  0  0
  142.8580  160.0370  132.6110 H   0  0  0  0  0  0  0  0  0  0  0  0
  147.3740  160.9124  132.9690 H   0  0  0  0  0  0  0  0  0  0  0  0
  149.5123  159.0728  132.5235 H   0  0  0  0  0  0  0  0  0  0  0  0
  150.0492  156.6199  132.3862 H   0  0  0  0  0  0  0  0  0  0  0  0
  150.3410  154.8165  131.9616 H   0  0  0  0  0  0  0  0  0  0  0  0
  149.1482  150.7590  132.4565 H   0  0  0  0  0  0  0  0  0  0  0  0
  146.9820  151.5120  133.2400 H   0  0  0  0  0  0  0  0  0  0  0  0
  146.3891  153.8532  133.4348 H   0  0  0  0  0  0  0  0  0  0  0  0
  145.8836  155.6634  133.2552 H   0  0  0  0  0  0  0  0  0  0  0  0
  1  2  1  0
  2  3  2  0
  2  4  1  0
  4  5  2  0
  5  6  1  0
  6  7  2  0
  7  8  1  0
  8  9  2  0
  9 10  1  0
 10 11  2  0
 11 12  1  0
 12 13  2  0
 13 14  1  0
 14 15  2  0
  9 16  1  0
 16 17  2  0
 17 18  1  0
 18 19  1  0
 19 20  2  0
 19 21  1  0
 18  4  1  0
 17  6  1  0
 15 10  1  0
  1 22  1  0
  5 23  1  0
  7 24  1  0
  8 25  1  0
 11 26  1  0
 13 27  1  0
 14 28  1  0
 15 29  1  0
 16 30  1  0
M  CHG  3   1  -1  14   1  21  -1
M  END
>  <UniqueID>  (85) 
83

>  <SMILES>  (85) 
[NH-]C(=O)c1cc2ccc(-c3cnc[nH+]c3)cc2n1C(=O)[O-]

>  <Energy>  (85) 
78.511575258739

>  <Genealogy>  (85) 
[NH-]C(=O)c1cc2ccc(-c3cnc[nH+]c3)cc2n1C(=O)[O-] (protonated)
[NH-]C(=O)c1cc2ccc(-c3cnc[nH+]c3)cc2n1C(=O)[O-] (3D coordinates assigned)
[NH-]C(=O)c1cc2ccc(-c3cnc[nH+]c3)cc2n1C(=O)[O-] (optimized conformer: 78.511575258739 kcal/mol)

>  <smiles>  (85) 
NC(=O)c1cc2ccc(-c3cncnc3)cc2n1C(=O)O

>  <score_type>  (85) 
oracle

>  <origin>  (85) 
adg

>  <m_score__min__energy>  (85) 
-6.7699999999999996

>  <m_primary>  (85) 
energy

$$$$
85:0
     RDKit          3D

 45 47  0  0  0  0  0  0  0  0999 V2000
  149.3080  161.2830  130.3600 C   0  0  0  0  0  0  0  0  0  0  0  0
  149.8050  160.3310  131.2910 O   0  0  0  0  0  0  0  0  0  0  0  0
  148.9850  159.3700  131.8930 C   0  0  0  0  0  0  0  0  0  0  0  0
  147.7020  159.7320  132.3260 C   0  0  0  0  0  0  0  0  0  0  0  0
  146.8690  158.7750  132.9250 C   0  0  0  0  0  0  0  0  0  0  0  0
  145.5000  159.1380  133.3830 C   0  0  0  0  0  0  0  0  0  0  0  0
  145.0740  160.4930  133.3660 C   0  0  0  0  0  0  0  0  0  0  0  0
  143.7760  160.8460  133.7750 C   0  0  0  0  0  0  0  0  0  0  0  0
  142.9270  159.8300  134.1950 C   0  0  0  0  0  0  0  0  0  0  0  0
  141.6150  159.8880  134.5980 C   0  0  0  0  0  0  0  0  0  0  0  0
  141.2450  158.5710  134.8650 C   0  0  0  0  0  0  0  0  0  0  0  0
  139.8570  158.2030  135.2170 C   0  0  0  0  0  0  0  0  0  0  0  0
  139.4210  158.1520  136.5780 N   0  0  0  0  0  0  0  0  0  0  0  0
  139.0170  157.9940  134.2960 O   0  0  0  0  0  0  0  0  0  0  0  0
  142.3020  157.7250  134.6450 N   0  0  0  0  0  0  0  0  0  0  0  0
  142.3170  156.2850  134.6160 C   0  0  0  0  0  0  0  0  0  0  0  0
  142.5640  155.6490  135.6770 O   0  0  0  0  0  0  0  0  0  0  0  0
  141.9690  155.5150  133.3720 C   0  0  0  0  0  0  0  0  0  0  0  0
  140.7660  154.6780  133.5880 N   0  0  0  0  0  0  0  0  0  0  0  0
  139.5780  155.2980  132.9750 C   0  0  0  0  0  0  0  0  0  0  0  0
  140.9680  153.3270  133.0350 C   0  0  0  0  0  0  0  0  0  0  0  0
  143.3150  158.5170  134.2230 C   0  0  0  0  0  0  0  0  0  0  0  0
  144.6010  158.1350  133.8210 C   0  0  0  0  0  0  0  0  0  0  0  0
  147.3510  157.4620  133.0780 C   0  0  0  0  0  0  0  0  0  0  0  0
  148.6360  157.1400  132.6390 C   0  0  0  0  0  0  0  0  0  0  0  0
  149.4170  158.0900  132.0600 N   0  0  0  0  0  0  0  0  0  0  0  0
  148.8654  162.1308  130.9034 H   0  0  0  0  0  0  0  0  0  0  0  0
  150.1332  161.6431  129.7280 H   0  0  0  0  0  0  0  0  0  0  0  0
  148.5408  160.8119  129.7280 H   0  0  0  0  0  0  0  0  0  0  0  0
  147.3485  160.7655  132.1963 H   0  0  0  0  0  0  0  0  0  0  0  0
  145.7687  161.2763  133.0285 H   0  0  0  0  0  0  0  0  0  0  0  0
  143.4431  161.8943  133.7628 H   0  0  0  0  0  0  0  0  0  0  0  0
  140.9873  160.7865  134.6907 H   0  0  0  0  0  0  0  0  0  0  0  0
  139.4540  158.9980  137.1840 H   0  0  0  0  0  0  0  0  0  0  0  0
  141.7730  156.2229  132.5532 H   0  0  0  0  0  0  0  0  0  0  0  0
  142.8135  154.8578  133.1175 H   0  0  0  0  0  0  0  0  0  0  0  0
  138.8999  155.6519  133.7656 H   0  0  0  0  0  0  0  0  0  0  0  0
  139.8892  156.1487  132.3509 H   0  0  0  0  0  0  0  0  0  0  0  0
  139.0581  154.5562  132.3509 H   0  0  0  0  0  0  0  0  0  0  0  0
  141.0758  152.6060  133.8587 H   0  0  0  0  0  0  0  0  0  0  0  0
  140.1012  153.0505  132.4168 H   0  0  0  0  0  0  0  0  0  0  0  0
  141.8778  153.3161  132.4168 H   0  0  0  0  0  0  0  0  0  0  0  0
  144.9064  157.0785  133.8449 H   0  0  0  0  0  0  0  0  0  0  0  0
  146.7172  156.6920  133.5420 H   0  0  0  0  0  0  0  0  0  0  0  0
  149.0175  156.1156  132.7618 H   0  0  0  0  0  0  0  0  0  0  0  0
  1  2  1  0
  2  3  1  0
  3  4  2  0
  4  5  1  0
  5  6  1  0
  6  7  2  0
  7  8  1  0
  8  9  2  0
  9 10  1  0
 10 11  2  0
 11 12  1  0
 12 13  1  0
 12 14  2  0
 11 15  1  0
 15 16  1  0
 16 17  2  0
 16 18  1  0
 18 19  1  0
 19 20  1  0
 19 21  1  0
 15 22  1  0
 22 23  2  0
  5 24  2  0
 24 25  1  0
 25 26  2  0
 26  3  1  0
 23  6  1  0
 22  9  1  0
  1 27  1  0
  1 28  1  0
  1 29  1  0
  4 30  1  0
  7 31  1  0
  8 32  1  0
 10 33  1  0
 13 34  1  0
 18 35  1  0
 18 36  1  0
 20 37  1  0
 20 38  1  0
 20 39  1  0
 21 40  1  0
 21 41  1  0
 21 42  1  0
 23 43  1  0
 24 44  1  0
 25 45  1  0
M  CHG  1  13  -1
M  END
>  <UniqueID>  (86) 
84

>  <SMILES>  (86) 
COc1cc(-c2ccc3cc(C([NH-])=O)n(C(=O)CN(C)C)c3c2)ccn1

>  <Energy>  (86) 
93.9644644716524

>  <Genealogy>  (86) 
COc1cc(-c2ccc3cc(C([NH-])=O)n(C(=O)CN(C)C)c3c2)ccn1 (protonated)
COc1cc(-c2ccc3cc(C([NH-])=O)n(C(=O)CN(C)C)c3c2)ccn1 (3D coordinates assigned)
COc1cc(-c2ccc3cc(C([NH-])=O)n(C(=O)CN(C)C)c3c2)ccn1 (optimized conformer: 93.9644644716524 kcal/mol)

>  <smiles>  (86) 
COc1cc(-c2ccc3cc(C(N)=O)n(C(=O)CN(C)C)c3c2)ccn1

>  <score_type>  (86) 
oracle

>  <origin>  (86) 
adg

>  <m_score__min__energy>  (86) 
-7.9400000000000004

>  <m_primary>  (86) 
energy

$$$$
86:0
     RDKit          3D

 38 39  0  0  0  0  0  0  0  0999 V2000
  142.6920  158.2900  133.5620 C   0  0  0  0  0  0  0  0  0  0  0  0
  141.8200  157.7360  132.6030 O   0  0  0  0  0  0  0  0  0  0  0  0
  140.4720  157.8980  133.0030 C   0  0  0  0  0  0  0  0  0  0  0  0
  139.7810  156.5400  133.1620 C   0  0  0  0  0  0  0  0  0  0  0  0
  140.7330  155.4440  132.9880 N   0  0  0  0  0  0  0  0  0  0  0  0
  140.3350  154.0660  132.9720 C   0  0  0  0  0  0  0  0  0  0  0  0
  139.1110  153.7600  132.9780 O   0  0  0  0  0  0  0  0  0  0  0  0
  141.3280  153.0300  132.9590 N   0  0  0  0  0  0  0  0  0  0  0  0
  142.6660  153.1500  133.1950 C   0  0  0  0  0  0  0  0  0  0  0  0
  143.3580  154.3750  133.6480 C   0  0  0  0  0  0  0  0  0  0  0  0
  143.6650  155.4030  132.7110 N   0  0  0  0  0  0  0  0  0  0  0  0
  143.7050  154.5120  134.8500 O   0  0  0  0  0  0  0  0  0  0  0  0
  143.3050  151.9250  133.0130 C   0  0  0  0  0  0  0  0  0  0  0  0
  142.3100  151.0430  132.6560 C   0  0  0  0  0  0  0  0  0  0  0  0
  142.3840  149.6910  132.3330 C   0  0  0  0  0  0  0  0  0  0  0  0
  141.1970  149.0360  131.9630 C   0  0  0  0  0  0  0  0  0  0  0  0
  139.9670  149.7400  131.9250 C   0  0  0  0  0  0  0  0  0  0  0  0
  138.7090  149.0430  131.4860 C   0  0  0  0  0  0  0  0  0  0  0  0
  138.9720  148.2310  130.2590 C   0  0  0  0  0  0  0  0  0  0  0  0
  139.2310  147.0020  130.3560 O   0  0  0  0  0  0  0  0  0  0  0  0
  138.8850  148.8190  129.0050 O   0  0  0  0  0  0  0  0  0  0  0  0
  139.9340  151.1140  132.2470 C   0  0  0  0  0  0  0  0  0  0  0  0
  141.1270  151.7350  132.6300 C   0  0  0  0  0  0  0  0  0  0  0  0
  142.3233  158.0557  134.5715 H   0  0  0  0  0  0  0  0  0  0  0  0
  143.6982  157.8652  133.4314 H   0  0  0  0  0  0  0  0  0  0  0  0
  142.7350  159.3814  133.4314 H   0  0  0  0  0  0  0  0  0  0  0  0
  140.4435  158.4312  133.9647 H   0  0  0  0  0  0  0  0  0  0  0  0
  139.9427  158.4727  132.2287 H   0  0  0  0  0  0  0  0  0  0  0  0
  139.3394  156.4766  134.1675 H   0  0  0  0  0  0  0  0  0  0  0  0
  139.0005  156.4517  132.3920 H   0  0  0  0  0  0  0  0  0  0  0  0
  141.7370  155.6790  132.8200 H   0  0  0  0  0  0  0  0  0  0  0  0
  142.9070  155.9150  132.2080 H   0  0  0  0  0  0  0  0  0  0  0  0
  144.3772  151.7086  133.1298 H   0  0  0  0  0  0  0  0  0  0  0  0
  143.3422  149.1518  132.3663 H   0  0  0  0  0  0  0  0  0  0  0  0
  141.2224  147.9680  131.7006 H   0  0  0  0  0  0  0  0  0  0  0  0
  138.3597  148.3811  132.2921 H   0  0  0  0  0  0  0  0  0  0  0  0
  137.9402  149.7967  131.2605 H   0  0  0  0  0  0  0  0  0  0  0  0
  138.9933  151.6821  132.1979 H   0  0  0  0  0  0  0  0  0  0  0  0
  1  2  1  0
  2  3  1  0
  3  4  1  0
  4  5  1  0
  5  6  1  0
  6  7  2  0
  6  8  1  0
  8  9  1  0
  9 10  1  0
 10 11  1  0
 10 12  2  0
  9 13  2  0
 13 14  1  0
 14 15  2  0
 15 16  1  0
 16 17  2  0
 17 18  1  0
 18 19  1  0
 19 20  2  0
 19 21  1  0
 17 22  1  0
 22 23  2  0
 23  8  1  0
 23 14  1  0
  1 24  1  0
  1 25  1  0
  1 26  1  0
  3 27  1  0
  3 28  1  0
  4 29  1  0
  4 30  1  0
  5 31  1  0
 11 32  1  0
 13 33  1  0
 15 34  1  0
 16 35  1  0
 18 36  1  0
 18 37  1  0
 22 38  1  0
M  CHG  2  11  -1  21  -1
M  END
>  <UniqueID>  (87) 
85

>  <SMILES>  (87) 
COCCNC(=O)n1c(C([NH-])=O)cc2ccc(CC(=O)[O-])cc21

>  <Energy>  (87) 
72.43180932660695

>  <Genealogy>  (87) 
COCCNC(=O)n1c(C([NH-])=O)cc2ccc(CC(=O)[O-])cc21 (protonated)
COCCNC(=O)n1c(C([NH-])=O)cc2ccc(CC(=O)[O-])cc21 (3D coordinates assigned)
COCCNC(=O)n1c(C([NH-])=O)cc2ccc(CC(=O)[O-])cc21 (optimized conformer: 72.43180932660695 kcal/mol)

>  <smiles>  (87) 
COCCNC(=O)n1c(C(N)=O)cc2ccc(CC(=O)O)cc21

>  <score_type>  (87) 
oracle

>  <origin>  (87) 
adg

>  <m_score__min__energy>  (87) 
-7.0800000000000001

>  <m_primary>  (87) 
energy

$$$$
87:0
     RDKit          3D

 42 44  0  0  0  0  0  0  0  0999 V2000
  138.6130  157.8600  131.2550 N   0  0  0  0  0  0  0  0  0  0  0  0
  139.6780  158.6430  131.8000 C   0  0  0  0  0  0  0  0  0  0  0  0
  140.2870  159.4450  131.0450 O   0  0  0  0  0  0  0  0  0  0  0  0
  140.0730  158.5110  133.2260 C   0  0  0  0  0  0  0  0  0  0  0  0
  140.2500  159.5890  134.0940 C   0  0  0  0  0  0  0  0  0  0  0  0
  140.5830  159.0320  135.3070 C   0  0  0  0  0  0  0  0  0  0  0  0
  140.8980  159.6460  136.5160 C   0  0  0  0  0  0  0  0  0  0  0  0
  141.2460  158.8250  137.6010 C   0  0  0  0  0  0  0  0  0  0  0  0
  141.2680  157.4120  137.4640 C   0  0  0  0  0  0  0  0  0  0  0  0
  141.7040  156.5440  138.6160 C   0  0  0  0  0  0  0  0  0  0  0  0
  140.5860  156.0280  139.2440 F   0  0  0  0  0  0  0  0  0  0  0  0
  142.4950  155.5000  138.1700 F   0  0  0  0  0  0  0  0  0  0  0  0
  142.4360  157.2800  139.5320 F   0  0  0  0  0  0  0  0  0  0  0  0
  140.9680  156.8310  136.2100 C   0  0  0  0  0  0  0  0  0  0  0  0
  140.6010  157.6730  135.1550 C   0  0  0  0  0  0  0  0  0  0  0  0
  140.2730  157.3340  133.8870 N   0  0  0  0  0  0  0  0  0  0  0  0
  140.1950  156.0050  133.3410 C   0  0  0  0  0  0  0  0  0  0  0  0
  139.1230  155.6200  132.8030 O   0  0  0  0  0  0  0  0  0  0  0  0
  141.3710  155.0620  133.3620 C   0  0  0  0  0  0  0  0  0  0  0  0
  142.9130  155.8590  133.9470 S   0  0  0  0  0  0  0  0  0  0  0  0
  143.0200  157.0840  132.6000 C   0  0  0  0  0  0  0  0  0  0  0  0
  143.8900  158.2250  133.0390 C   0  0  0  0  0  0  0  0  0  0  0  0
  143.3150  159.4650  133.3690 C   0  0  0  0  0  0  0  0  0  0  0  0
  144.1260  160.5410  133.7400 C   0  0  0  0  0  0  0  0  0  0  0  0
  145.5150  160.3910  133.7770 C   0  0  0  0  0  0  0  0  0  0  0  0
  146.0960  159.1650  133.4370 C   0  0  0  0  0  0  0  0  0  0  0  0
  145.2870  158.0860  133.0640 C   0  0  0  0  0  0  0  0  0  0  0  0
  138.3750  157.9390  130.2420 H   0  0  0  0  0  0  0  0  0  0  0  0
  138.0280  157.2340  131.8500 H   0  0  0  0  0  0  0  0  0  0  0  0
  140.1454  160.6583  133.8582 H   0  0  0  0  0  0  0  0  0  0  0  0
  140.8750  160.7410  136.6184 H   0  0  0  0  0  0  0  0  0  0  0  0
  141.5044  159.2818  138.5677 H   0  0  0  0  0  0  0  0  0  0  0  0
  141.0220  155.7416  136.0675 H   0  0  0  0  0  0  0  0  0  0  0  0
  141.1348  154.2212  134.0308 H   0  0  0  0  0  0  0  0  0  0  0  0
  141.5440  154.7268  132.3287 H   0  0  0  0  0  0  0  0  0  0  0  0
  143.4553  156.6118  131.7070 H   0  0  0  0  0  0  0  0  0  0  0  0
  142.0138  157.4577  132.3594 H   0  0  0  0  0  0  0  0  0  0  0  0
  142.2225  159.5886  133.3350 H   0  0  0  0  0  0  0  0  0  0  0  0
  143.6706  161.5071  134.0032 H   0  0  0  0  0  0  0  0  0  0  0  0
  146.1516  161.2376  134.0736 H   0  0  0  0  0  0  0  0  0  0  0  0
  147.1896  159.0490  133.4629 H   0  0  0  0  0  0  0  0  0  0  0  0
  145.7471  157.1253  132.7893 H   0  0  0  0  0  0  0  0  0  0  0  0
  1  2  1  0
  2  3  2  0
  2  4  1  0
  4  5  2  0
  5  6  1  0
  6  7  2  0
  7  8  1  0
  8  9  2  0
  9 10  1  0
 10 11  1  0
 10 12  1  0
 10 13  1  0
  9 14  1  0
 14 15  2  0
 15 16  1  0
 16 17  1  0
 17 18  2  0
 17 19  1  0
 19 20  1  0
 20 21  1  0
 21 22  1  0
 22 23  2  0
 23 24  1  0
 24 25  2  0
 25 26  1  0
 26 27  2  0
 16  4  1  0
 27 22  1  0
 15  6  1  0
  1 28  1  0
  1 29  1  0
  5 30  1  0
  7 31  1  0
  8 32  1  0
 14 33  1  0
 19 34  1  0
 19 35  1  0
 21 36  1  0
 21 37  1  0
 23 38  1  0
 24 39  1  0
 25 40  1  0
 26 41  1  0
 27 42  1  0
M  END
>  <UniqueID>  (88) 
86

>  <SMILES>  (88) 
NC(=O)c1cc2ccc(C(F)(F)F)cc2n1C(=O)CSCc1ccccc1

>  <Energy>  (88) 
78.96247674723783

>  <Genealogy>  (88) 
NC(=O)c1cc2ccc(C(F)(F)F)cc2n1C(=O)CSCc1ccccc1 (3D coordinates assigned)
NC(=O)c1cc2ccc(C(F)(F)F)cc2n1C(=O)CSCc1ccccc1 (optimized conformer: 78.96247674723783 kcal/mol)

>  <smiles>  (88) 
NC(=O)c1cc2ccc(C(F)(F)F)cc2n1C(=O)CSCc1ccccc1

>  <score_type>  (88) 
oracle

>  <origin>  (88) 
adg

>  <m_score__min__energy>  (88) 
-8.1699999999999999

>  <m_primary>  (88) 
energy

$$$$
88:0
     RDKit          3D

 53 54  0  0  0  0  0  0  0  0999 V2000
  149.5380  159.8070  129.6830 C   0  0  0  0  0  0  0  0  0  0  0  0
  149.5990  159.8170  131.1540 N   0  0  0  0  0  0  0  0  0  0  0  0
  149.5520  158.4320  131.6550 C   0  0  0  0  0  0  0  0  0  0  0  0
  148.4860  160.6220  131.7030 C   0  0  0  0  0  0  0  0  0  0  0  0
  147.9440  160.0260  133.0170 C   0  0  0  0  0  0  0  0  0  0  0  0
  146.5200  160.4930  133.3620 C   0  0  0  0  0  0  0  0  0  0  0  0
  145.5370  159.3500  133.3750 C   0  0  0  0  0  0  0  0  0  0  0  0
  145.9960  158.0130  133.2760 C   0  0  0  0  0  0  0  0  0  0  0  0
  145.0920  156.9400  133.3380 C   0  0  0  0  0  0  0  0  0  0  0  0
  143.7400  157.2330  133.4920 C   0  0  0  0  0  0  0  0  0  0  0  0
  142.6590  156.3910  133.6180 C   0  0  0  0  0  0  0  0  0  0  0  0
  141.5550  157.2270  133.7700 C   0  0  0  0  0  0  0  0  0  0  0  0
  140.1650  156.7320  133.8570 C   0  0  0  0  0  0  0  0  0  0  0  0
  139.2490  157.2820  134.8010 N   0  0  0  0  0  0  0  0  0  0  0  0
  139.7670  155.8460  133.0540 O   0  0  0  0  0  0  0  0  0  0  0  0
  141.9390  158.5340  133.7480 N   0  0  0  0  0  0  0  0  0  0  0  0
  141.1260  159.6950  133.9760 C   0  0  0  0  0  0  0  0  0  0  0  0
  140.6110  159.8890  135.1100 O   0  0  0  0  0  0  0  0  0  0  0  0
  140.8790  160.6140  132.9070 N   0  0  0  0  0  0  0  0  0  0  0  0
  139.5710  160.8000  132.2900 C   0  0  0  0  0  0  0  0  0  0  0  0
  139.4750  160.0000  130.9860 C   0  0  0  0  0  0  0  0  0  0  0  0
  138.2140  159.2300  130.9390 N   0  0  0  0  0  0  0  0  0  0  0  0
  137.0740  160.1050  130.6070 C   0  0  0  0  0  0  0  0  0  0  0  0
  137.9660  158.5780  132.2350 C   0  0  0  0  0  0  0  0  0  0  0  0
  143.2780  158.5210  133.5740 C   0  0  0  0  0  0  0  0  0  0  0  0
  144.1570  159.6100  133.5330 C   0  0  0  0  0  0  0  0  0  0  0  0
  148.5003  159.6370  129.3602 H   0  0  0  0  0  0  0  0  0  0  0  0
  149.8889  160.7746  129.2949 H   0  0  0  0  0  0  0  0  0  0  0  0
  150.1793  159.0020  129.2949 H   0  0  0  0  0  0  0  0  0  0  0  0
  149.5523  158.4398  132.7550 H   0  0  0  0  0  0  0  0  0  0  0  0
  148.6367  157.9416  131.2920 H   0  0  0  0  0  0  0  0  0  0  0  0
  150.4320  157.8807  131.2920 H   0  0  0  0  0  0  0  0  0  0  0  0
  148.8465  161.6430  131.8969 H   0  0  0  0  0  0  0  0  0  0  0  0
  147.6695  160.6250  130.9659 H   0  0  0  0  0  0  0  0  0  0  0  0
  147.9382  158.9298  132.9256 H   0  0  0  0  0  0  0  0  0  0  0  0
  148.6032  160.3742  133.8259 H   0  0  0  0  0  0  0  0  0  0  0  0
  146.5317  160.9624  134.3568 H   0  0  0  0  0  0  0  0  0  0  0  0
  146.2003  161.2066  132.5883 H   0  0  0  0  0  0  0  0  0  0  0  0
  147.0704  157.8137  133.1494 H   0  0  0  0  0  0  0  0  0  0  0  0
  145.4418  155.8995  133.2670 H   0  0  0  0  0  0  0  0  0  0  0  0
  142.6652  155.2911  133.6021 H   0  0  0  0  0  0  0  0  0  0  0  0
  139.5400  158.0470  135.4480 H   0  0  0  0  0  0  0  0  0  0  0  0
  138.7906  160.4555  132.9845 H   0  0  0  0  0  0  0  0  0  0  0  0
  139.4324  161.8676  132.0639 H   0  0  0  0  0  0  0  0  0  0  0  0
  139.5067  160.6939  130.1331 H   0  0  0  0  0  0  0  0  0  0  0  0
  140.3207  159.2983  130.9376 H   0  0  0  0  0  0  0  0  0  0  0  0
  136.6054  160.4647  131.5349 H   0  0  0  0  0  0  0  0  0  0  0  0
  137.4300  160.9639  130.0192 H   0  0  0  0  0  0  0  0  0  0  0  0
  136.3363  159.5390  130.0192 H   0  0  0  0  0  0  0  0  0  0  0  0
  138.2289  159.2691  133.0494 H   0  0  0  0  0  0  0  0  0  0  0  0
  136.9024  158.3081  132.3121 H   0  0  0  0  0  0  0  0  0  0  0  0
  138.5814  157.6695  132.3121 H   0  0  0  0  0  0  0  0  0  0  0  0
  143.7833  160.6408  133.6215 H   0  0  0  0  0  0  0  0  0  0  0  0
  1  2  1  0
  2  3  1  0
  2  4  1  0
  4  5  1  0
  5  6  1  0
  6  7  1  0
  7  8  2  0
  8  9  1  0
  9 10  2  0
 10 11  1  0
 11 12  2  0
 12 13  1  0
 13 14  1  0
 13 15  2  0
 12 16  1  0
 16 17  1  0
 17 18  2  0
 17 19  1  0
 19 20  1  0
 20 21  1  0
 21 22  1  0
 22 23  1  0
 22 24  1  0
 16 25  1  0
 25 26  2  0
 26  7  1  0
 25 10  1  0
  1 27  1  0
  1 28  1  0
  1 29  1  0
  3 30  1  0
  3 31  1  0
  3 32  1  0
  4 33  1  0
  4 34  1  0
  5 35  1  0
  5 36  1  0
  6 37  1  0
  6 38  1  0
  8 39  1  0
  9 40  1  0
 11 41  1  0
 14 42  1  0
 20 43  1  0
 20 44  1  0
 21 45  1  0
 21 46  1  0
 23 47  1  0
 23 48  1  0
 23 49  1  0
 24 50  1  0
 24 51  1  0
 24 52  1  0
 26 53  1  0
M  CHG  2  14  -1  19  -1
M  END
>  <UniqueID>  (89) 
87

>  <SMILES>  (89) 
CN(C)CCCc1ccc2cc(C([NH-])=O)n(C(=O)[N-]CCN(C)C)c2c1

>  <Energy>  (89) 
84.7191685000086

>  <Genealogy>  (89) 
CN(C)CCCc1ccc2cc(C([NH-])=O)n(C(=O)[N-]CCN(C)C)c2c1 (protonated)
CN(C)CCCc1ccc2cc(C([NH-])=O)n(C(=O)[N-]CCN(C)C)c2c1 (3D coordinates assigned)
CN(C)CCCc1ccc2cc(C([NH-])=O)n(C(=O)[N-]CCN(C)C)c2c1 (optimized conformer: 84.7191685000086 kcal/mol)

>  <smiles>  (89) 
CN(C)CCCc1ccc2cc(C(N)=O)n(C(=O)NCCN(C)C)c2c1

>  <score_type>  (89) 
oracle

>  <origin>  (89) 
adg

>  <m_score__min__energy>  (89) 
-7.9800000000000004

>  <m_primary>  (89) 
energy

$$$$
89:0
     RDKit          3D

 37 39  0  0  0  0  0  0  0  0999 V2000
  139.0660  156.6400  133.2550 N   0  0  0  0  0  0  0  0  0  0  0  0
  139.5110  157.7190  134.0780 C   0  0  0  0  0  0  0  0  0  0  0  0
  138.7330  158.1900  134.9480 O   0  0  0  0  0  0  0  0  0  0  0  0
  140.8830  158.2570  133.9400 C   0  0  0  0  0  0  0  0  0  0  0  0
  141.2100  159.6020  134.1040 C   0  0  0  0  0  0  0  0  0  0  0  0
  142.5490  159.6920  133.7970 C   0  0  0  0  0  0  0  0  0  0  0  0
  143.3950  160.7960  133.8050 C   0  0  0  0  0  0  0  0  0  0  0  0
  144.7440  160.5940  133.4690 C   0  0  0  0  0  0  0  0  0  0  0  0
  145.2260  159.3000  133.1390 C   0  0  0  0  0  0  0  0  0  0  0  0
  146.6570  159.0970  132.7970 C   0  0  0  0  0  0  0  0  0  0  0  0
  147.3530  157.9700  133.2720 C   0  0  0  0  0  0  0  0  0  0  0  0
  148.6990  157.7810  132.9500 C   0  0  0  0  0  0  0  0  0  0  0  0
  149.3690  158.7120  132.1540 C   0  0  0  0  0  0  0  0  0  0  0  0
  150.6760  158.5180  131.8480 F   0  0  0  0  0  0  0  0  0  0  0  0
  148.6890  159.8400  131.6750 C   0  0  0  0  0  0  0  0  0  0  0  0
  149.5230  161.0200  130.6780 Cl  0  0  0  0  0  0  0  0  0  0  0  0
  147.3400  160.0310  131.9950 C   0  0  0  0  0  0  0  0  0  0  0  0
  144.3300  158.2040  133.1420 C   0  0  0  0  0  0  0  0  0  0  0  0
  142.9890  158.4380  133.4630 C   0  0  0  0  0  0  0  0  0  0  0  0
  141.9770  157.5450  133.5450 N   0  0  0  0  0  0  0  0  0  0  0  0
  142.0650  156.1260  133.3390 C   0  0  0  0  0  0  0  0  0  0  0  0
  143.0360  155.6440  132.6920 O   0  0  0  0  0  0  0  0  0  0  0  0
  141.0750  155.2850  133.8600 O   0  0  0  0  0  0  0  0  0  0  0  0
  140.6790  154.0640  133.2410 C   0  0  0  0  0  0  0  0  0  0  0  0
  139.3450  154.1450  132.8200 O   0  0  0  0  0  0  0  0  0  0  0  0
  139.6620  156.2600  132.4880 H   0  0  0  0  0  0  0  0  0  0  0  0
  138.1090  156.2420  133.3870 H   0  0  0  0  0  0  0  0  0  0  0  0
  140.5404  160.4182  134.4131 H   0  0  0  0  0  0  0  0  0  0  0  0
  143.0194  161.7963  134.0663 H   0  0  0  0  0  0  0  0  0  0  0  0
  145.4357  161.4493  133.4615 H   0  0  0  0  0  0  0  0  0  0  0  0
  146.8334  157.2326  133.9014 H   0  0  0  0  0  0  0  0  0  0  0  0
  149.2330  156.8954  133.3249 H   0  0  0  0  0  0  0  0  0  0  0  0
  146.8095  160.9174  131.6171 H   0  0  0  0  0  0  0  0  0  0  0  0
  144.6808  157.1906  132.8972 H   0  0  0  0  0  0  0  0  0  0  0  0
  141.3236  153.8722  132.3706 H   0  0  0  0  0  0  0  0  0  0  0  0
  140.7765  153.2447  133.9685 H   0  0  0  0  0  0  0  0  0  0  0  0
  139.1810  153.3570  132.2400 H   0  0  0  0  0  0  0  0  0  0  0  0
  1  2  1  0
  2  3  2  0
  2  4  1  0
  4  5  2  0
  5  6  1  0
  6  7  2  0
  7  8  1  0
  8  9  2  0
  9 10  1  0
 10 11  2  0
 11 12  1  0
 12 13  2  0
 13 14  1  0
 13 15  1  0
 15 16  1  0
 15 17  2  0
  9 18  1  0
 18 19  2  0
 19 20  1  0
 20 21  1  0
 21 22  2  0
 21 23  1  0
 23 24  1  0
 24 25  1  0
 20  4  1  0
 19  6  1  0
 17 10  1  0
  1 26  1  0
  1 27  1  0
  5 28  1  0
  7 29  1  0
  8 30  1  0
 11 31  1  0
 12 32  1  0
 17 33  1  0
 18 34  1  0
 24 35  1  0
 24 36  1  0
 25 37  1  0
M  END
>  <UniqueID>  (90) 
88

>  <SMILES>  (90) 
NC(=O)c1cc2ccc(-c3ccc(F)c(Cl)c3)cc2n1C(=O)OCO

>  <Energy>  (90) 
82.35041608606168

>  <Genealogy>  (90) 
NC(=O)c1cc2ccc(-c3ccc(F)c(Cl)c3)cc2n1C(=O)OCO (3D coordinates assigned)
NC(=O)c1cc2ccc(-c3ccc(F)c(Cl)c3)cc2n1C(=O)OCO (optimized conformer: 82.35041608606168 kcal/mol)

>  <smiles>  (90) 
NC(=O)c1cc2ccc(-c3ccc(F)c(Cl)c3)cc2n1C(=O)OCO

>  <score_type>  (90) 
oracle

>  <origin>  (90) 
adg

>  <m_score__min__energy>  (90) 
-8.1400000000000006

>  <m_primary>  (90) 
energy

$$$$
90:0
     RDKit          3D

 46 48  0  0  0  0  0  0  0  0999 V2000
  139.1160  146.5610  129.7100 C   0  0  0  0  0  0  0  0  0  0  0  0
  139.8270  147.4560  130.6140 N   0  0  0  0  0  0  0  0  0  0  0  0
  139.2960  148.7420  130.9700 C   0  0  0  0  0  0  0  0  0  0  0  0
  138.1920  149.1150  130.4880 O   0  0  0  0  0  0  0  0  0  0  0  0
  140.0180  149.6470  131.8860 C   0  0  0  0  0  0  0  0  0  0  0  0
  140.0330  151.0380  131.8570 C   0  0  0  0  0  0  0  0  0  0  0  0
  140.8210  151.6140  132.8710 C   0  0  0  0  0  0  0  0  0  0  0  0
  140.9830  153.0790  133.0500 C   0  0  0  0  0  0  0  0  0  0  0  0
  139.8540  153.9380  132.9900 C   0  0  0  0  0  0  0  0  0  0  0  0
  139.9970  155.3270  133.1430 C   0  0  0  0  0  0  0  0  0  0  0  0
  141.2750  155.8320  133.3580 C   0  0  0  0  0  0  0  0  0  0  0  0
  141.7020  157.1320  133.5030 C   0  0  0  0  0  0  0  0  0  0  0  0
  143.0850  157.0520  133.6600 C   0  0  0  0  0  0  0  0  0  0  0  0
  143.9560  158.2270  133.8800 C   0  0  0  0  0  0  0  0  0  0  0  0
  145.3650  158.0800  134.0340 N   0  0  0  0  0  0  0  0  0  0  0  0
  143.4440  159.3760  133.9560 O   0  0  0  0  0  0  0  0  0  0  0  0
  143.4920  155.7530  133.6180 N   0  0  0  0  0  0  0  0  0  0  0  0
  144.8380  155.2580  133.6700 C   0  0  0  0  0  0  0  0  0  0  0  0
  145.1990  154.5550  134.6530 O   0  0  0  0  0  0  0  0  0  0  0  0
  145.7630  155.4680  132.5010 C   0  0  0  0  0  0  0  0  0  0  0  0
  147.1340  154.7880  132.6710 C   0  0  0  0  0  0  0  0  0  0  0  0
  147.8840  155.2210  133.9450 C   0  0  0  0  0  0  0  0  0  0  0  0
  147.3990  156.4990  134.4640 N   0  0  0  0  0  0  0  0  0  0  0  0
  142.3750  155.0190  133.4310 C   0  0  0  0  0  0  0  0  0  0  0  0
  142.2660  153.6340  133.2710 C   0  0  0  0  0  0  0  0  0  0  0  0
  141.4330  150.6670  133.6930 C   0  0  0  0  0  0  0  0  0  0  0  0
  140.9860  149.1380  133.1630 S   0  0  0  0  0  0  0  0  0  0  0  0
  138.5369  145.8321  130.2960 H   0  0  0  0  0  0  0  0  0  0  0  0
  138.4339  147.1464  129.0758 H   0  0  0  0  0  0  0  0  0  0  0  0
  139.8404  146.0290  129.0758 H   0  0  0  0  0  0  0  0  0  0  0  0
  140.7440  147.1370  130.9960 H   0  0  0  0  0  0  0  0  0  0  0  0
  139.4816  151.6310  131.1125 H   0  0  0  0  0  0  0  0  0  0  0  0
  138.8546  153.5103  132.8216 H   0  0  0  0  0  0  0  0  0  0  0  0
  139.1245  155.9952  133.0943 H   0  0  0  0  0  0  0  0  0  0  0  0
  141.0833  158.0415  133.4964 H   0  0  0  0  0  0  0  0  0  0  0  0
  145.7630  157.4480  134.7630 H   0  0  0  0  0  0  0  0  0  0  0  0
  145.2821  155.0609  131.5993 H   0  0  0  0  0  0  0  0  0  0  0  0
  145.9464  156.5499  132.4246 H   0  0  0  0  0  0  0  0  0  0  0  0
  146.9796  153.6996  132.7114 H   0  0  0  0  0  0  0  0  0  0  0  0
  147.7529  155.0915  131.8138 H   0  0  0  0  0  0  0  0  0  0  0  0
  147.7456  154.4497  134.7170 H   0  0  0  0  0  0  0  0  0  0  0  0
  148.9463  155.3427  133.6866 H   0  0  0  0  0  0  0  0  0  0  0  0
  147.3150  157.1760  133.6710 H   0  0  0  0  0  0  0  0  0  0  0  0
  146.4450  156.3700  134.8700 H   0  0  0  0  0  0  0  0  0  0  0  0
  143.1571  152.9907  133.3159 H   0  0  0  0  0  0  0  0  0  0  0  0
  142.0956  150.8852  134.5435 H   0  0  0  0  0  0  0  0  0  0  0  0
  1  2  1  0
  2  3  1  0
  3  4  2  0
  3  5  1  0
  5  6  2  0
  6  7  1  0
  7  8  1  0
  8  9  2  0
  9 10  1  0
 10 11  2  0
 11 12  1  0
 12 13  2  0
 13 14  1  0
 14 15  1  0
 14 16  2  0
 13 17  1  0
 17 18  1  0
 18 19  2  0
 18 20  1  0
 20 21  1  0
 21 22  1  0
 22 23  1  0
 17 24  1  0
 24 25  2  0
  7 26  2  0
 26 27  1  0
 27  5  1  0
 25  8  1  0
 24 11  1  0
  1 28  1  0
  1 29  1  0
  1 30  1  0
  2 31  1  0
  6 32  1  0
  9 33  1  0
 10 34  1  0
 12 35  1  0
 15 36  1  0
 20 37  1  0
 20 38  1  0
 21 39  1  0
 21 40  1  0
 22 41  1  0
 22 42  1  0
 23 43  1  0
 23 44  1  0
 25 45  1  0
 26 46  1  0
M  CHG  1  15  -1
M  END
>  <UniqueID>  (91) 
89

>  <SMILES>  (91) 
CNC(=O)c1cc(-c2ccc3cc(C([NH-])=O)n(C(=O)CCCN)c3c2)cs1

>  <Energy>  (91) 
110.41239352723328

>  <Genealogy>  (91) 
CNC(=O)c1cc(-c2ccc3cc(C([NH-])=O)n(C(=O)CCCN)c3c2)cs1 (protonated)
CNC(=O)c1cc(-c2ccc3cc(C([NH-])=O)n(C(=O)CCCN)c3c2)cs1 (3D coordinates assigned)
CNC(=O)c1cc(-c2ccc3cc(C([NH-])=O)n(C(=O)CCCN)c3c2)cs1 (optimized conformer: 110.41239352723328 kcal/mol)

>  <smiles>  (91) 
CNC(=O)c1cc(-c2ccc3cc(C(N)=O)n(C(=O)CCCN)c3c2)cs1

>  <score_type>  (91) 
oracle

>  <origin>  (91) 
adg

>  <m_score__min__energy>  (91) 
-8.5299999999999994

>  <m_primary>  (91) 
energy

$$$$
91:0
     RDKit          3D

 53 57  0  0  0  0  0  0  0  0999 V2000
  146.5160  153.1490  133.4020 N   0  0  0  0  0  0  0  0  0  0  0  0
  147.3460  154.3000  133.2410 C   0  0  0  0  0  0  0  0  0  0  0  0
  148.5850  154.1620  133.0610 O   0  0  0  0  0  0  0  0  0  0  0  0
  146.7530  155.6450  133.2800 C   0  0  0  0  0  0  0  0  0  0  0  0
  147.4990  156.7970  133.4910 C   0  0  0  0  0  0  0  0  0  0  0  0
  146.5900  157.8260  133.4590 C   0  0  0  0  0  0  0  0  0  0  0  0
  146.7950  159.1930  133.6300 C   0  0  0  0  0  0  0  0  0  0  0  0
  145.6730  160.0370  133.6050 C   0  0  0  0  0  0  0  0  0  0  0  0
  144.3750  159.4990  133.4200 C   0  0  0  0  0  0  0  0  0  0  0  0
  143.1710  160.4080  133.4720 C   0  0  0  0  0  0  0  0  0  0  0  0
  141.9330  159.7140  134.0990 C   0  0  2  0  0  0  0  0  0  0  0  0
  142.3410  158.8300  135.3050 C   0  0  0  0  0  0  0  0  0  0  0  0
  141.3510  157.7220  135.7270 C   0  0  1  0  0  0  0  0  0  0  0  0
  139.8550  158.1430  135.7030 C   0  0  0  0  0  0  0  0  0  0  0  0
  139.1660  157.9770  134.3280 C   0  0  1  0  0  0  0  0  0  0  0  0
  139.5840  159.0550  133.3230 C   0  0  0  0  0  0  0  0  0  0  0  0
  141.0880  158.9970  133.0010 C   0  0  2  0  0  0  0  0  0  0  0  0
  141.5590  157.5550  132.6480 C   0  0  0  0  0  0  0  0  0  0  0  0
  140.9750  156.4250  133.5500 C   0  0  1  0  0  0  0  0  0  0  0  0
  141.1930  155.1780  132.9330 O   0  0  0  0  0  0  0  0  0  0  0  0
  141.6070  156.4150  134.9560 C   0  0  0  0  0  0  0  0  0  0  0  0
  139.4570  156.6010  133.7180 C   0  0  0  0  0  0  0  0  0  0  0  0
  144.2070  158.1070  133.2400 C   0  0  0  0  0  0  0  0  0  0  0  0
  145.3460  157.2860  133.2540 C   0  0  0  0  0  0  0  0  0  0  0  0
  145.4280  155.9360  133.1370 N   0  0  0  0  0  0  0  0  0  0  0  0
  144.3490  154.9900  132.9590 C   0  0  0  0  0  0  0  0  0  0  0  0
  143.7330  154.5240  133.9490 O   0  0  0  0  0  0  0  0  0  0  0  0
  143.9770  154.5700  131.6900 O   0  0  0  0  0  0  0  0  0  0  0  0
  145.4790  153.2420  133.5180 H   0  0  0  0  0  0  0  0  0  0  0  0
  146.9340  152.1920  133.4060 H   0  0  0  0  0  0  0  0  0  0  0  0
  148.5850  156.8698  133.6497 H   0  0  0  0  0  0  0  0  0  0  0  0
  147.8060  159.5995  133.7802 H   0  0  0  0  0  0  0  0  0  0  0  0
  145.8023  161.1222  133.7297 H   0  0  0  0  0  0  0  0  0  0  0  0
  143.4225  161.2934  134.0743 H   0  0  0  0  0  0  0  0  0  0  0  0
  142.9137  160.6835  132.4386 H   0  0  0  0  0  0  0  0  0  0  0  0
  141.2587  160.4703  134.5271 H   0  0  0  0  0  0  0  0  0  0  0  0
  143.2953  158.3444  135.0530 H   0  0  0  0  0  0  0  0  0  0  0  0
  142.3838  159.5176  136.1625 H   0  0  0  0  0  0  0  0  0  0  0  0
  141.5601  157.5349  136.7906 H   0  0  0  0  0  0  0  0  0  0  0  0
  139.3127  157.5277  136.4360 H   0  0  0  0  0  0  0  0  0  0  0  0
  139.8274  159.2168  135.9402 H   0  0  0  0  0  0  0  0  0  0  0  0
  138.0885  158.0797  134.5239 H   0  0  0  0  0  0  0  0  0  0  0  0
  139.0164  158.9106  132.3919 H   0  0  0  0  0  0  0  0  0  0  0  0
  139.3722  160.0364  133.7724 H   0  0  0  0  0  0  0  0  0  0  0  0
  141.2665  159.5718  132.0803 H   0  0  0  0  0  0  0  0  0  0  0  0
  141.2655  157.3463  131.6086 H   0  0  0  0  0  0  0  0  0  0  0  0
  142.6471  157.5418  132.8092 H   0  0  0  0  0  0  0  0  0  0  0  0
  142.1230  155.1710  132.5810 H   0  0  0  0  0  0  0  0  0  0  0  0
  141.1801  155.5784  135.5286 H   0  0  0  0  0  0  0  0  0  0  0  0
  142.6948  156.3076  134.8325 H   0  0  0  0  0  0  0  0  0  0  0  0
  138.9682  156.5247  132.7355 H   0  0  0  0  0  0  0  0  0  0  0  0
  139.0684  155.8157  134.3831 H   0  0  0  0  0  0  0  0  0  0  0  0
  143.2057  157.6763  133.0922 H   0  0  0  0  0  0  0  0  0  0  0  0
  1  2  1  0
  2  3  2  0
  2  4  1  0
  4  5  2  0
  5  6  1  0
  6  7  2  0
  7  8  1  0
  8  9  2  0
  9 10  1  0
 10 11  1  0
 11 12  1  0
 12 13  1  0
 13 14  1  0
 14 15  1  0
 15 16  1  0
 16 17  1  0
 17 18  1  0
 18 19  1  0
 19 20  1  6
 19 21  1  0
 19 22  1  0
  9 23  1  0
 23 24  2  0
 24 25  1  0
 25 26  1  0
 26 27  2  0
 26 28  1  0
 25  4  1  0
 24  6  1  0
 17 11  1  0
 21 13  1  0
 22 15  1  0
  1 29  1  0
  1 30  1  0
  5 31  1  0
  7 32  1  0
  8 33  1  0
 10 34  1  0
 10 35  1  0
 11 36  1  1
 12 37  1  0
 12 38  1  0
 13 39  1  1
 14 40  1  0
 14 41  1  0
 15 42  1  1
 16 43  1  0
 16 44  1  0
 17 45  1  6
 18 46  1  0
 18 47  1  0
 20 48  1  0
 21 49  1  0
 21 50  1  0
 22 51  1  0
 22 52  1  0
 23 53  1  0
M  CHG  1  28  -1
M  END
>  <UniqueID>  (92) 
90

>  <SMILES>  (92) 
NC(=O)c1cc2ccc(C[C@@H]3C[C@H]4CC5CC3CC(O)(C5)C4)cc2n1C(=O)[O-]

>  <Energy>  (92) 
108.99770152409367

>  <Genealogy>  (92) 
NC(=O)c1cc2ccc(CC3CC4CC5CC3CC(O)(C4)C5)cc2n1C(=O)[O-] (protonated)
NC(=O)c1cc2ccc(C[C@@H]3C[C@H]4CC5CC3CC(O)(C5)C4)cc2n1C(=O)[O-] (chirality)
NC(=O)c1cc2ccc(C[C@@H]3C[C@H]4CC5CC3CC(O)(C5)C4)cc2n1C(=O)[O-] (3D coordinates assigned)
NC(=O)c1cc2ccc(C[C@@H]3C[C@H]4CC5CC3CC(O)(C5)C4)cc2n1C(=O)[O-] (nonaromatic ring conformer: 108.99770152409367 kcal/mol)

>  <smiles>  (92) 
NC(=O)c1cc2ccc(CC3CC4CC5CC3CC(O)(C4)C5)cc2n1C(=O)O

>  <score_type>  (92) 
oracle

>  <origin>  (92) 
adg

>  <m_score__min__energy>  (92) 
-8.4100000000000001

>  <m_primary>  (92) 
energy

$$$$
92:0
     RDKit          3D

 46 48  0  0  0  0  0  0  0  0999 V2000
  138.5940  158.5940  131.5150 C   0  0  0  0  0  0  0  0  0  0  0  0
  137.9330  158.2810  132.7930 N   0  0  0  0  0  0  0  0  0  0  0  0
  138.8410  157.8620  133.8880 C   0  0  1  0  0  0  0  0  0  0  0  0
  139.4520  156.4680  133.6710 C   0  0  0  0  0  0  0  0  0  0  0  0
  140.9180  156.6960  133.3210 C   0  0  0  0  0  0  0  0  0  0  0  0
  141.2070  158.0900  133.6390 N   0  0  0  0  0  0  0  0  0  0  0  0
  142.5330  158.6680  133.5720 C   0  0  0  0  0  0  0  0  0  0  0  0
  142.7280  160.0610  133.7880 C   0  0  0  0  0  0  0  0  0  0  0  0
  144.0120  160.6290  133.7310 C   0  0  0  0  0  0  0  0  0  0  0  0
  145.0870  159.7880  133.4670 C   0  0  0  0  0  0  0  0  0  0  0  0
  146.4280  160.0740  133.3570 C   0  0  0  0  0  0  0  0  0  0  0  0
  147.0500  158.8530  133.1050 C   0  0  0  0  0  0  0  0  0  0  0  0
  148.5170  158.6950  133.0260 C   0  0  0  0  0  0  0  0  0  0  0  0
  149.1060  158.1290  131.8580 N   0  0  0  0  0  0  0  0  0  0  0  0
  149.2610  159.0860  133.9600 O   0  0  0  0  0  0  0  0  0  0  0  0
  146.1260  157.8500  133.0490 N   0  0  0  0  0  0  0  0  0  0  0  0
  146.3550  156.4520  132.7970 C   0  0  0  0  0  0  0  0  0  0  0  0
  145.3820  155.6970  132.5160 O   0  0  0  0  0  0  0  0  0  0  0  0
  147.6540  155.9330  132.8570 O   0  0  0  0  0  0  0  0  0  0  0  0
  148.0630  154.9530  133.8110 C   0  0  0  0  0  0  0  0  0  0  0  0
  147.7000  155.4040  135.2280 C   0  0  0  0  0  0  0  0  0  0  0  0
  147.3730  154.2460  136.0670 C   0  0  0  0  0  0  0  0  0  0  0  0
  147.1150  153.3310  136.7300 N   0  0  0  0  0  0  0  0  0  0  0  0
  144.9300  158.4410  133.2750 C   0  0  0  0  0  0  0  0  0  0  0  0
  143.6600  157.8520  133.3010 C   0  0  0  0  0  0  0  0  0  0  0  0
  140.0250  158.8160  134.0870 C   0  0  0  0  0  0  0  0  0  0  0  0
  139.5721  159.0571  131.7119 H   0  0  0  0  0  0  0  0  0  0  0  0
  138.7362  157.6676  130.9392 H   0  0  0  0  0  0  0  0  0  0  0  0
  137.9675  159.2911  130.9392 H   0  0  0  0  0  0  0  0  0  0  0  0
  137.2470  157.5060  132.6220 H   0  0  0  0  0  0  0  0  0  0  0  0
  138.1849  157.8644  134.7709 H   0  0  0  0  0  0  0  0  0  0  0  0
  139.3680  155.8678  134.5890 H   0  0  0  0  0  0  0  0  0  0  0  0
  138.9295  155.9213  132.8722 H   0  0  0  0  0  0  0  0  0  0  0  0
  141.5591  156.0294  133.9165 H   0  0  0  0  0  0  0  0  0  0  0  0
  141.1120  156.4813  132.2597 H   0  0  0  0  0  0  0  0  0  0  0  0
  141.8607  160.7026  134.0027 H   0  0  0  0  0  0  0  0  0  0  0  0
  144.1621  161.7070  133.8905 H   0  0  0  0  0  0  0  0  0  0  0  0
  146.9082  161.0594  133.4487 H   0  0  0  0  0  0  0  0  0  0  0  0
  148.7930  157.2010  131.4930 H   0  0  0  0  0  0  0  0  0  0  0  0
  147.5567  154.0012  133.5927 H   0  0  0  0  0  0  0  0  0  0  0  0
  149.1535  154.8246  133.7457 H   0  0  0  0  0  0  0  0  0  0  0  0
  148.5542  155.9399  135.6674 H   0  0  0  0  0  0  0  0  0  0  0  0
  146.8229  156.0660  135.1773 H   0  0  0  0  0  0  0  0  0  0  0  0
  143.5389  156.7747  133.1144 H   0  0  0  0  0  0  0  0  0  0  0  0
  140.1228  159.0872  135.1485 H   0  0  0  0  0  0  0  0  0  0  0  0
  139.8885  159.7502  133.5225 H   0  0  0  0  0  0  0  0  0  0  0  0
  1  2  1  0
  2  3  1  0
  3  4  1  0
  4  5  1  0
  5  6  1  0
  6  7  1  0
  7  8  2  0
  8  9  1  0
  9 10  2  0
 10 11  1  0
 11 12  2  0
 12 13  1  0
 13 14  1  0
 13 15  2  0
 12 16  1  0
 16 17  1  0
 17 18  2  0
 17 19  1  0
 19 20  1  0
 20 21  1  0
 21 22  1  0
 22 23  3  0
 16 24  1  0
 24 25  2  0
  6 26  1  0
 26  3  1  0
 25  7  1  0
 24 10  1  0
  1 27  1  0
  1 28  1  0
  1 29  1  0
  2 30  1  0
  3 31  1  1
  4 32  1  0
  4 33  1  0
  5 34  1  0
  5 35  1  0
  8 36  1  0
  9 37  1  0
 11 38  1  0
 14 39  1  0
 20 40  1  0
 20 41  1  0
 21 42  1  0
 21 43  1  0
 25 44  1  0
 26 45  1  0
 26 46  1  0
M  CHG  1  14  -1
M  END
>  <UniqueID>  (93) 
91

>  <SMILES>  (93) 
CN[C@H]1CCN(c2ccc3cc(C([NH-])=O)n(C(=O)OCCC#N)c3c2)C1

>  <Energy>  (93) 
87.28535365385228

>  <Genealogy>  (93) 
CNC1CCN(c2ccc3cc(C([NH-])=O)n(C(=O)OCCC#N)c3c2)C1 (protonated)
CN[C@H]1CCN(c2ccc3cc(C([NH-])=O)n(C(=O)OCCC#N)c3c2)C1 (chirality)
CN[C@H]1CCN(c2ccc3cc(C([NH-])=O)n(C(=O)OCCC#N)c3c2)C1 (3D coordinates assigned)
CN[C@H]1CCN(c2ccc3cc(C([NH-])=O)n(C(=O)OCCC#N)c3c2)C1 (nonaromatic ring conformer: 87.28535365385228 kcal/mol)

>  <smiles>  (93) 
CNC1CCN(c2ccc3cc(C(N)=O)n(C(=O)OCCC#N)c3c2)C1

>  <score_type>  (93) 
oracle

>  <origin>  (93) 
adg

>  <m_score__min__energy>  (93) 
-8.3900000000000006

>  <m_primary>  (93) 
energy

$$$$
93:0
     RDKit          3D

 40 41  0  0  0  0  0  0  0  0999 V2000
  149.6820  158.6370  132.2040 C   0  0  0  0  0  0  0  0  0  0  0  0
  148.6370  159.0430  131.2510 N   0  0  0  0  0  0  0  0  0  0  0  0
  149.2130  159.3540  129.9330 C   0  0  0  0  0  0  0  0  0  0  0  0
  147.7700  160.1230  131.7720 C   0  0  0  0  0  0  0  0  0  0  0  0
  147.5740  160.1020  133.2980 C   0  0  0  0  0  0  0  0  0  0  0  0
  146.8630  158.8880  133.6740 N   0  0  0  0  0  0  0  0  0  0  0  0
  145.4850  158.6650  133.3610 C   0  0  0  0  0  0  0  0  0  0  0  0
  144.7960  159.5930  132.8550 O   0  0  0  0  0  0  0  0  0  0  0  0
  144.8820  157.3890  133.6300 N   0  0  0  0  0  0  0  0  0  0  0  0
  145.4230  156.1570  133.4100 C   0  0  0  0  0  0  0  0  0  0  0  0
  146.6880  155.8800  132.6990 C   0  0  0  0  0  0  0  0  0  0  0  0
  147.3550  156.8980  131.9520 N   0  0  0  0  0  0  0  0  0  0  0  0
  147.1600  154.7130  132.7090 O   0  0  0  0  0  0  0  0  0  0  0  0
  144.5930  155.1590  133.9120 C   0  0  0  0  0  0  0  0  0  0  0  0
  143.5080  155.8210  134.4430 C   0  0  0  0  0  0  0  0  0  0  0  0
  142.3900  155.3190  135.0980 C   0  0  0  0  0  0  0  0  0  0  0  0
  141.4470  156.2370  135.5890 C   0  0  0  0  0  0  0  0  0  0  0  0
  141.6310  157.6320  135.4130 C   0  0  0  0  0  0  0  0  0  0  0  0
  140.6460  158.6090  136.0010 C   0  0  0  0  0  0  0  0  0  0  0  0
  139.3670  158.0790  135.9940 F   0  0  0  0  0  0  0  0  0  0  0  0
  140.6570  159.7720  135.2540 F   0  0  0  0  0  0  0  0  0  0  0  0
  140.9810  158.9120  137.3110 F   0  0  0  0  0  0  0  0  0  0  0  0
  142.7970  158.1030  134.7640 C   0  0  0  0  0  0  0  0  0  0  0  0
  143.7080  157.1650  134.2620 C   0  0  0  0  0  0  0  0  0  0  0  0
  149.3163  158.7791  133.2317 H   0  0  0  0  0  0  0  0  0  0  0  0
  149.9302  157.5770  132.0464 H   0  0  0  0  0  0  0  0  0  0  0  0
  150.5807  159.2514  132.0464 H   0  0  0  0  0  0  0  0  0  0  0  0
  150.1738  159.8728  130.0659 H   0  0  0  0  0  0  0  0  0  0  0  0
  149.3746  158.4205  129.3739 H   0  0  0  0  0  0  0  0  0  0  0  0
  148.5211  160.0012  129.3739 H   0  0  0  0  0  0  0  0  0  0  0  0
  148.2199  161.0882  131.4964 H   0  0  0  0  0  0  0  0  0  0  0  0
  146.7761  159.9696  131.3262 H   0  0  0  0  0  0  0  0  0  0  0  0
  148.5551  160.1224  133.7950 H   0  0  0  0  0  0  0  0  0  0  0  0
  146.9909  160.9820  133.6073 H   0  0  0  0  0  0  0  0  0  0  0  0
  148.2700  156.6960  131.4920 H   0  0  0  0  0  0  0  0  0  0  0  0
  146.9040  157.8240  131.7780 H   0  0  0  0  0  0  0  0  0  0  0  0
  144.7665  154.0730  133.8895 H   0  0  0  0  0  0  0  0  0  0  0  0
  142.2478  154.2360  135.2280 H   0  0  0  0  0  0  0  0  0  0  0  0
  140.5546  155.8692  136.1166 H   0  0  0  0  0  0  0  0  0  0  0  0
  142.9837  159.1817  134.6562 H   0  0  0  0  0  0  0  0  0  0  0  0
  1  2  1  0
  2  3  1  0
  2  4  1  0
  4  5  1  0
  5  6  1  0
  6  7  1  0
  7  8  2  0
  7  9  1  0
  9 10  1  0
 10 11  1  0
 11 12  1  0
 11 13  2  0
 10 14  2  0
 14 15  1  0
 15 16  2  0
 16 17  1  0
 17 18  2  0
 18 19  1  0
 19 20  1  0
 19 21  1  0
 19 22  1  0
 18 23  1  0
 23 24  2  0
 24  9  1  0
 24 15  1  0
  1 25  1  0
  1 26  1  0
  1 27  1  0
  3 28  1  0
  3 29  1  0
  3 30  1  0
  4 31  1  0
  4 32  1  0
  5 33  1  0
  5 34  1  0
 12 35  1  0
 12 36  1  0
 14 37  1  0
 16 38  1  0
 17 39  1  0
 23 40  1  0
M  CHG  1   6  -1
M  END
>  <UniqueID>  (94) 
92

>  <SMILES>  (94) 
CN(C)CC[N-]C(=O)n1c(C(N)=O)cc2ccc(C(F)(F)F)cc21

>  <Energy>  (94) 
78.97076786693304

>  <Genealogy>  (94) 
CN(C)CC[N-]C(=O)n1c(C(N)=O)cc2ccc(C(F)(F)F)cc21 (protonated)
CN(C)CC[N-]C(=O)n1c(C(N)=O)cc2ccc(C(F)(F)F)cc21 (3D coordinates assigned)
CN(C)CC[N-]C(=O)n1c(C(N)=O)cc2ccc(C(F)(F)F)cc21 (optimized conformer: 78.97076786693304 kcal/mol)

>  <smiles>  (94) 
CN(C)CCNC(=O)n1c(C(N)=O)cc2ccc(C(F)(F)F)cc21

>  <score_type>  (94) 
oracle

>  <origin>  (94) 
adg

>  <m_score__min__energy>  (94) 
-7.1100000000000003

>  <m_primary>  (94) 
energy

$$$$
94:0
     RDKit          3D

 36 39  0  0  0  0  0  0  0  0999 V2000
  146.5980  161.6430  133.7510 N   0  0  0  0  0  0  0  0  0  0  0  0
  145.4750  160.7600  133.7040 C   0  0  0  0  0  0  0  0  0  0  0  0
  144.3140  161.2420  133.7750 O   0  0  0  0  0  0  0  0  0  0  0  0
  145.6650  159.2950  133.5980 C   0  0  0  0  0  0  0  0  0  0  0  0
  144.6270  158.3640  133.6200 C   0  0  0  0  0  0  0  0  0  0  0  0
  145.2270  157.1440  133.4000 C   0  0  0  0  0  0  0  0  0  0  0  0
  144.6700  155.8720  133.3200 C   0  0  0  0  0  0  0  0  0  0  0  0
  145.5340  154.7870  133.0920 C   0  0  0  0  0  0  0  0  0  0  0  0
  146.9330  154.9880  132.9530 C   0  0  0  0  0  0  0  0  0  0  0  0
  147.8380  153.8330  132.7200 C   0  0  0  0  0  0  0  0  0  0  0  0
  147.3280  152.5280  132.6140 C   0  0  0  0  0  0  0  0  0  0  0  0
  148.1910  151.4520  132.3950 C   0  0  0  0  0  0  0  0  0  0  0  0
  149.5610  151.6860  132.2830 C   0  0  0  0  0  0  0  0  0  0  0  0
  150.0460  152.9510  132.3890 N   0  0  0  0  0  0  0  0  0  0  0  0
  149.2270  154.0160  132.6010 C   0  0  0  0  0  0  0  0  0  0  0  0
  147.4580  156.2990  133.0410 C   0  0  0  0  0  0  0  0  0  0  0  0
  146.5720  157.3580  133.2570 C   0  0  0  0  0  0  0  0  0  0  0  0
  146.8570  158.6710  133.3800 N   0  0  0  0  0  0  0  0  0  0  0  0
  148.1660  159.2600  133.3250 C   0  0  0  0  0  0  0  0  0  0  0  0
  148.8440  159.3630  134.3820 O   0  0  0  0  0  0  0  0  0  0  0  0
  148.7030  159.7800  132.0550 C   0  0  0  0  0  0  0  0  0  0  0  0
  149.4520  159.0050  131.1670 C   0  0  0  0  0  0  0  0  0  0  0  0
  149.8200  160.0480  129.9210 S   0  0  0  0  0  0  0  0  0  0  0  0
  149.0630  161.4030  130.5030 N   0  0  0  0  0  0  0  0  0  0  0  0
  148.5110  161.0790  131.6690 N   0  0  0  0  0  0  0  0  0  0  0  0
  147.5740  161.2930  133.6310 H   0  0  0  0  0  0  0  0  0  0  0  0
  146.4500  162.6720  133.8620 H   0  0  0  0  0  0  0  0  0  0  0  0
  143.5567  158.5619  133.7792 H   0  0  0  0  0  0  0  0  0  0  0  0
  143.5863  155.7198  133.4318 H   0  0  0  0  0  0  0  0  0  0  0  0
  145.1215  153.7698  133.0203 H   0  0  0  0  0  0  0  0  0  0  0  0
  146.2457  152.3533  132.7038 H   0  0  0  0  0  0  0  0  0  0  0  0
  147.7937  150.4296  132.3117 H   0  0  0  0  0  0  0  0  0  0  0  0
  150.2496  150.8461  132.1087 H   0  0  0  0  0  0  0  0  0  0  0  0
  149.6539  155.0267  132.6798 H   0  0  0  0  0  0  0  0  0  0  0  0
  148.5384  156.4804  132.9417 H   0  0  0  0  0  0  0  0  0  0  0  0
  149.7347  157.9467  131.2674 H   0  0  0  0  0  0  0  0  0  0  0  0
  1  2  1  0
  2  3  2  0
  2  4  1  0
  4  5  2  0
  5  6  1  0
  6  7  2  0
  7  8  1  0
  8  9  2  0
  9 10  1  0
 10 11  2  0
 11 12  1  0
 12 13  2  0
 13 14  1  0
 14 15  2  0
  9 16  1  0
 16 17  2  0
 17 18  1  0
 18 19  1  0
 19 20  2  0
 19 21  1  0
 21 22  2  0
 22 23  1  0
 23 24  1  0
 24 25  2  0
 18  4  1  0
 25 21  1  0
 17  6  1  0
 15 10  1  0
  1 26  1  0
  1 27  1  0
  5 28  1  0
  7 29  1  0
  8 30  1  0
 11 31  1  0
 12 32  1  0
 13 33  1  0
 15 34  1  0
 16 35  1  0
 22 36  1  0
M  END
>  <UniqueID>  (95) 
93

>  <SMILES>  (95) 
NC(=O)c1cc2ccc(-c3cccnc3)cc2n1C(=O)c1csnn1

>  <Energy>  (95) 
122.8078748669254

>  <Genealogy>  (95) 
NC(=O)c1cc2ccc(-c3cccnc3)cc2n1C(=O)c1csnn1 (3D coordinates assigned)
NC(=O)c1cc2ccc(-c3cccnc3)cc2n1C(=O)c1csnn1 (optimized conformer: 122.8078748669254 kcal/mol)

>  <smiles>  (95) 
NC(=O)c1cc2ccc(-c3cccnc3)cc2n1C(=O)c1csnn1

>  <score_type>  (95) 
oracle

>  <origin>  (95) 
adg

>  <m_score__min__energy>  (95) 
-8.8599999999999994

>  <m_primary>  (95) 
energy

$$$$
95:0
     RDKit          3D

 35 36  0  0  0  0  0  0  0  0999 V2000
  149.5870  160.0620  130.3880 C   0  0  0  0  0  0  0  0  0  0  0  0
  149.2230  158.9010  130.9300 C   0  0  0  0  0  0  0  0  0  0  0  0
  148.8820  158.7550  132.3570 C   0  0  0  0  0  0  0  0  0  0  0  0
  149.5830  159.3510  133.2170 O   0  0  0  0  0  0  0  0  0  0  0  0
  147.7750  157.9510  132.7920 N   0  0  0  0  0  0  0  0  0  0  0  0
  146.5140  158.3550  133.1150 C   0  0  0  0  0  0  0  0  0  0  0  0
  146.0380  159.7530  133.1810 C   0  0  0  0  0  0  0  0  0  0  0  0
  146.9420  160.8420  133.3800 N   0  0  0  0  0  0  0  0  0  0  0  0
  144.8030  159.9880  133.1020 O   0  0  0  0  0  0  0  0  0  0  0  0
  145.7030  157.2520  133.3820 C   0  0  0  0  0  0  0  0  0  0  0  0
  146.5190  156.1530  133.2280 C   0  0  0  0  0  0  0  0  0  0  0  0
  146.2320  154.7970  133.3480 C   0  0  0  0  0  0  0  0  0  0  0  0
  147.2650  153.8800  133.0860 C   0  0  0  0  0  0  0  0  0  0  0  0
  148.5570  154.3320  132.7180 C   0  0  0  0  0  0  0  0  0  0  0  0
  149.6350  153.3400  132.3770 C   0  0  0  0  0  0  0  0  0  0  0  0
  149.3720  152.0450  133.0780 C   0  0  0  0  0  0  0  0  0  0  0  0
  149.2450  152.0250  134.3320 O   0  0  0  0  0  0  0  0  0  0  0  0
  149.2180  150.8440  132.3150 N   0  0  0  0  0  0  0  0  0  0  0  0
  149.9890  150.5720  131.1110 C   0  0  0  0  0  0  0  0  0  0  0  0
  148.8100  155.7170  132.6010 C   0  0  0  0  0  0  0  0  0  0  0  0
  147.7640  156.6050  132.8760 C   0  0  0  0  0  0  0  0  0  0  0  0
  149.8313  160.1164  129.3168 H   0  0  0  0  0  0  0  0  0  0  0  0
  149.6434  160.9664  131.0116 H   0  0  0  0  0  0  0  0  0  0  0  0
  149.1747  158.0117  130.2844 H   0  0  0  0  0  0  0  0  0  0  0  0
  146.5880  161.8240  133.3580 H   0  0  0  0  0  0  0  0  0  0  0  0
  147.9370  160.6840  133.6450 H   0  0  0  0  0  0  0  0  0  0  0  0
  144.6380  157.2584  133.6571 H   0  0  0  0  0  0  0  0  0  0  0  0
  145.2284  154.4531  133.6388 H   0  0  0  0  0  0  0  0  0  0  0  0
  147.0685  152.8008  133.1674 H   0  0  0  0  0  0  0  0  0  0  0  0
  149.6455  153.1713  131.2901 H   0  0  0  0  0  0  0  0  0  0  0  0
  150.6089  153.7366  132.6999 H   0  0  0  0  0  0  0  0  0  0  0  0
  150.9924  150.2180  131.3903 H   0  0  0  0  0  0  0  0  0  0  0  0
  149.4799  149.7992  130.5163 H   0  0  0  0  0  0  0  0  0  0  0  0
  150.0775  151.4932  130.5163 H   0  0  0  0  0  0  0  0  0  0  0  0
  149.8018  156.0871  132.3020 H   0  0  0  0  0  0  0  0  0  0  0  0
  1  2  2  0
  2  3  1  0
  3  4  2  0
  3  5  1  0
  5  6  1  0
  6  7  1  0
  7  8  1  0
  7  9  2  0
  6 10  2  0
 10 11  1  0
 11 12  2  0
 12 13  1  0
 13 14  2  0
 14 15  1  0
 15 16  1  0
 16 17  2  0
 16 18  1  0
 18 19  1  0
 14 20  1  0
 20 21  2  0
 21  5  1  0
 21 11  1  0
  1 22  1  0
  1 23  1  0
  2 24  1  0
  8 25  1  0
  8 26  1  0
 10 27  1  0
 12 28  1  0
 13 29  1  0
 15 30  1  0
 15 31  1  0
 19 32  1  0
 19 33  1  0
 19 34  1  0
 20 35  1  0
M  CHG  1  18  -1
M  END
>  <UniqueID>  (96) 
94

>  <SMILES>  (96) 
C=CC(=O)n1c(C(N)=O)cc2ccc(CC(=O)[N-]C)cc21

>  <Energy>  (96) 
70.03723210878447

>  <Genealogy>  (96) 
C=CC(=O)n1c(C(N)=O)cc2ccc(CC(=O)[N-]C)cc21 (protonated)
C=CC(=O)n1c(C(N)=O)cc2ccc(CC(=O)[N-]C)cc21 (3D coordinates assigned)
C=CC(=O)n1c(C(N)=O)cc2ccc(CC(=O)[N-]C)cc21 (optimized conformer: 70.03723210878447 kcal/mol)

>  <smiles>  (96) 
C=CC(=O)n1c(C(N)=O)cc2ccc(CC(=O)NC)cc21

>  <score_type>  (96) 
oracle

>  <origin>  (96) 
adg

>  <m_score__min__energy>  (96) 
-6.9299999999999997

>  <m_primary>  (96) 
energy

$$$$
96:0
     RDKit          3D

 42 44  0  0  0  0  0  0  0  0999 V2000
  148.3020  154.6300  132.6200 C   0  0  0  0  0  0  0  0  0  0  0  0
  147.7130  155.9590  132.5140 N   0  0  0  0  0  0  0  0  0  0  0  0
  146.7460  156.4350  133.4560 C   0  0  0  0  0  0  0  0  0  0  0  0
  146.3080  155.6670  134.3570 O   0  0  0  0  0  0  0  0  0  0  0  0
  146.2760  157.7890  133.3850 N   0  0  0  0  0  0  0  0  0  0  0  0
  146.9660  158.8920  132.9790 C   0  0  0  0  0  0  0  0  0  0  0  0
  148.4050  158.9410  132.6430 C   0  0  0  0  0  0  0  0  0  0  0  0
  148.8780  158.5040  131.3720 N   0  0  0  0  0  0  0  0  0  0  0  0
  149.2320  159.3460  133.5020 O   0  0  0  0  0  0  0  0  0  0  0  0
  146.1370  160.0130  132.9810 C   0  0  0  0  0  0  0  0  0  0  0  0
  144.9090  159.5570  133.4040 C   0  0  0  0  0  0  0  0  0  0  0  0
  143.7120  160.2430  133.5810 C   0  0  0  0  0  0  0  0  0  0  0  0
  142.5890  159.5110  134.0000 C   0  0  0  0  0  0  0  0  0  0  0  0
  142.6740  158.1090  134.2180 C   0  0  0  0  0  0  0  0  0  0  0  0
  141.4640  157.3130  134.6690 C   0  0  2  0  0  0  0  0  0  0  0  0
  141.2130  156.0980  133.7680 C   0  0  0  0  0  0  0  0  0  0  0  0
  140.2530  158.2020  134.7520 C   0  0  0  0  0  0  0  0  0  0  0  0
  140.1110  158.9720  135.7410 O   0  0  0  0  0  0  0  0  0  0  0  0
  139.2900  158.2100  133.6950 N   0  0  0  0  0  0  0  0  0  0  0  0
  139.6310  158.5870  132.3300 C   0  0  0  0  0  0  0  0  0  0  0  0
  138.4350  159.0370  131.5120 C   0  0  0  0  0  0  0  0  0  0  0  0
  139.4190  160.0620  132.0560 C   0  0  0  0  0  0  0  0  0  0  0  0
  143.9130  157.4530  134.0340 C   0  0  0  0  0  0  0  0  0  0  0  0
  145.0190  158.2120  133.6380 C   0  0  0  0  0  0  0  0  0  0  0  0
  148.4196  154.3646  133.6810 H   0  0  0  0  0  0  0  0  0  0  0  0
  147.6443  153.8973  132.1295 H   0  0  0  0  0  0  0  0  0  0  0  0
  149.2866  154.6251  132.1295 H   0  0  0  0  0  0  0  0  0  0  0  0
  148.0050  156.5780  131.7250 H   0  0  0  0  0  0  0  0  0  0  0  0
  148.8380  157.4960  131.1010 H   0  0  0  0  0  0  0  0  0  0  0  0
  146.4068  161.0427  132.7036 H   0  0  0  0  0  0  0  0  0  0  0  0
  143.6469  161.3258  133.3984 H   0  0  0  0  0  0  0  0  0  0  0  0
  141.6321  160.0290  134.1614 H   0  0  0  0  0  0  0  0  0  0  0  0
  141.6714  156.9209  135.6756 H   0  0  0  0  0  0  0  0  0  0  0  0
  141.0297  155.2106  134.3917 H   0  0  0  0  0  0  0  0  0  0  0  0
  140.3350  156.2876  133.1330 H   0  0  0  0  0  0  0  0  0  0  0  0
  142.0942  155.9242  133.1330 H   0  0  0  0  0  0  0  0  0  0  0  0
  140.4527  157.8720  132.1765 H   0  0  0  0  0  0  0  0  0  0  0  0
  138.3969  158.8294  130.4324 H   0  0  0  0  0  0  0  0  0  0  0  0
  137.3468  158.8906  131.5778 H   0  0  0  0  0  0  0  0  0  0  0  0
  140.0924  160.5964  131.3697 H   0  0  0  0  0  0  0  0  0  0  0  0
  139.3371  160.9651  132.6786 H   0  0  0  0  0  0  0  0  0  0  0  0
  144.0050  156.3693  134.1987 H   0  0  0  0  0  0  0  0  0  0  0  0
  1  2  1  0
  2  3  1  0
  3  4  2  0
  3  5  1  0
  5  6  1  0
  6  7  1  0
  7  8  1  0
  7  9  2  0
  6 10  2  0
 10 11  1  0
 11 12  2  0
 12 13  1  0
 13 14  2  0
 14 15  1  0
 15 16  1  0
 15 17  1  0
 17 18  2  0
 17 19  1  0
 19 20  1  0
 20 21  1  0
 21 22  1  0
 14 23  1  0
 23 24  2  0
 24  5  1  0
 24 11  1  0
 22 20  1  0
  1 25  1  0
  1 26  1  0
  1 27  1  0
  2 28  1  0
  8 29  1  0
 10 30  1  0
 12 31  1  0
 13 32  1  0
 15 33  1  1
 16 34  1  0
 16 35  1  0
 16 36  1  0
 20 37  1  0
 21 38  1  0
 21 39  1  0
 22 40  1  0
 22 41  1  0
 23 42  1  0
M  CHG  2   8  -1  19  -1
M  END
>  <UniqueID>  (97) 
95

>  <SMILES>  (97) 
CNC(=O)n1c(C([NH-])=O)cc2ccc([C@H](C)C(=O)[N-]C3CC3)cc21

>  <Energy>  (97) 
340.110453281403

>  <Genealogy>  (97) 
CNC(=O)n1c(C([NH-])=O)cc2ccc(C(C)C(=O)[N-]C3CC3)cc21 (protonated)
CNC(=O)n1c(C([NH-])=O)cc2ccc([C@H](C)C(=O)[N-]C3CC3)cc21 (chirality)
CNC(=O)n1c(C([NH-])=O)cc2ccc([C@H](C)C(=O)[N-]C3CC3)cc21 (3D coordinates assigned)
CNC(=O)n1c(C([NH-])=O)cc2ccc([C@H](C)C(=O)[N-]C3CC3)cc21 (nonaromatic ring conformer: 340.110453281403 kcal/mol)

>  <smiles>  (97) 
CNC(=O)n1c(C(N)=O)cc2ccc(C(C)C(=O)NC3CC3)cc21

>  <score_type>  (97) 
oracle

>  <origin>  (97) 
adg

>  <m_score__min__energy>  (97) 
-7.7999999999999998

>  <m_primary>  (97) 
energy

$$$$
