0:0
     RDKit          3D

 48 49  0  0  0  0  0  0  0  0999 V2000
  139.1220  146.5250  129.6020 C   0  0  0  0  0  0  0  0  0  0  0  0
  138.3570  147.3400  130.4640 O   0  0  0  0  0  0  0  0  0  0  0  0
  138.9010  148.6450  130.5260 C   0  0  0  0  0  0  0  0  0  0  0  0
  140.3990  148.5840  130.8190 C   0  0  0  0  0  0  0  0  0  0  0  0
  140.6030  148.6600  132.2140 O   0  0  0  0  0  0  0  0  0  0  0  0
  141.4240  149.7670  132.5350 C   0  0  0  0  0  0  0  0  0  0  0  0
  140.5730  151.0270  132.7040 C   0  0  0  0  0  0  0  0  0  0  0  0
  141.4010  152.1550  132.9840 O   0  0  0  0  0  0  0  0  0  0  0  0
  140.9040  153.4570  133.1090 C   0  0  0  0  0  0  0  0  0  0  0  0
  139.7550  153.7530  132.6800 O   0  0  0  0  0  0  0  0  0  0  0  0
  141.7300  154.4920  133.7920 C   0  0  0  0  0  0  0  0  0  0  0  0
  141.3150  155.8100  133.3370 N   0  0  0  0  0  0  0  0  0  0  0  0
  140.3150  156.5860  134.0030 C   0  0  0  0  0  0  0  0  0  0  0  0
  139.0960  156.4220  133.7180 O   0  0  0  0  0  0  0  0  0  0  0  0
  140.7000  157.5680  134.9770 N   0  0  0  0  0  0  0  0  0  0  0  0
  140.7470  158.9230  134.8230 C   0  0  0  0  0  0  0  0  0  0  0  0
  140.5840  159.6590  133.5530 C   0  0  0  0  0  0  0  0  0  0  0  0
  141.6590  160.4140  133.0010 N   0  0  0  0  0  0  0  0  0  0  0  0
  139.4630  159.6650  132.9750 O   0  0  0  0  0  0  0  0  0  0  0  0
  141.0560  159.5430  136.0320 C   0  0  0  0  0  0  0  0  0  0  0  0
  141.2080  158.5190  136.9390 C   0  0  0  0  0  0  0  0  0  0  0  0
  141.5220  158.5640  138.2930 C   0  0  0  0  0  0  0  0  0  0  0  0
  141.5980  157.3470  138.9920 C   0  0  0  0  0  0  0  0  0  0  0  0
  141.3340  156.1170  138.3360 C   0  0  0  0  0  0  0  0  0  0  0  0
  141.4530  154.8110  139.0800 C   0  0  0  0  0  0  0  0  0  0  0  0
  142.0570  153.8430  138.2950 F   0  0  0  0  0  0  0  0  0  0  0  0
  142.2150  154.9780  140.2230 F   0  0  0  0  0  0  0  0  0  0  0  0
  140.1910  154.3760  139.4400 F   0  0  0  0  0  0  0  0  0  0  0  0
  141.0370  156.1120  136.9540 C   0  0  0  0  0  0  0  0  0  0  0  0
  140.9880  157.3380  136.2790 C   0  0  0  0  0  0  0  0  0  0  0  0
  139.7541  145.8515  130.1993 H   0  0  0  0  0  0  0  0  0  0  0  0
  138.4491  145.9295  128.9675 H   0  0  0  0  0  0  0  0  0  0  0  0
  139.7588  147.1588  128.9675 H   0  0  0  0  0  0  0  0  0  0  0  0
  138.7404  149.1508  129.5625 H   0  0  0  0  0  0  0  0  0  0  0  0
  138.4019  149.2017  131.3329 H   0  0  0  0  0  0  0  0  0  0  0  0
  140.8101  147.6374  130.4382 H   0  0  0  0  0  0  0  0  0  0  0  0
  140.9066  149.4256  130.3250 H   0  0  0  0  0  0  0  0  0  0  0  0
  141.9592  149.5618  133.4739 H   0  0  0  0  0  0  0  0  0  0  0  0
  142.1436  149.9277  131.7187 H   0  0  0  0  0  0  0  0  0  0  0  0
  140.0112  151.2116  131.7765 H   0  0  0  0  0  0  0  0  0  0  0  0
  139.8789  150.8777  133.5442 H   0  0  0  0  0  0  0  0  0  0  0  0
  141.5885  154.4168  134.8803 H   0  0  0  0  0  0  0  0  0  0  0  0
  142.7921  154.3352  133.5527 H   0  0  0  0  0  0  0  0  0  0  0  0
  142.1160  160.1260  132.1080 H   0  0  0  0  0  0  0  0  0  0  0  0
  141.1570  160.6219  136.2213 H   0  0  0  0  0  0  0  0  0  0  0  0
  141.7052  159.5222  138.8011 H   0  0  0  0  0  0  0  0  0  0  0  0
  141.8650  157.3482  140.0591 H   0  0  0  0  0  0  0  0  0  0  0  0
  140.8489  155.1679  136.4216 H   0  0  0  0  0  0  0  0  0  0  0  0
  1  2  1  0
  2  3  1  0
  3  4  1  0
  4  5  1  0
  5  6  1  0
  6  7  1  0
  7  8  1  0
  8  9  1  0
  9 10  2  0
  9 11  1  0
 11 12  1  0
 12 13  1  0
 13 14  2  0
 13 15  1  0
 15 16  1  0
 16 17  1  0
 17 18  1  0
 17 19  2  0
 16 20  2  0
 20 21  1  0
 21 22  2  0
 22 23  1  0
 23 24  2  0
 24 25  1  0
 25 26  1  0
 25 27  1  0
 25 28  1  0
 24 29  1  0
 29 30  2  0
 30 15  1  0
 30 21  1  0
  1 31  1  0
  1 32  1  0
  1 33  1  0
  3 34  1  0
  3 35  1  0
  4 36  1  0
  4 37  1  0
  6 38  1  0
  6 39  1  0
  7 40  1  0
  7 41  1  0
 11 42  1  0
 11 43  1  0
 18 44  1  0
 20 45  1  0
 22 46  1  0
 23 47  1  0
 29 48  1  0
M  CHG  2  12  -1  18  -1
M  END
>  <UniqueID>  (1) 
1

>  <SMILES>  (1) 
COCCOCCOC(=O)C[N-]C(=O)n1c(C([NH-])=O)cc2ccc(C(F)(F)F)cc21

>  <Energy>  (1) 
82.95063723915355

>  <Genealogy>  (1) 
COCCOCCOC(=O)C[N-]C(=O)n1c(C([NH-])=O)cc2ccc(C(F)(F)F)cc21 (protonated)
COCCOCCOC(=O)C[N-]C(=O)n1c(C([NH-])=O)cc2ccc(C(F)(F)F)cc21 (3D coordinates assigned)
COCCOCCOC(=O)C[N-]C(=O)n1c(C([NH-])=O)cc2ccc(C(F)(F)F)cc21 (optimized conformer: 82.95063723915355 kcal/mol)

>  <smiles>  (1) 
COCCOCCOC(=O)CNC(=O)n1c(C(N)=O)cc2ccc(C(F)(F)F)cc21

>  <score_type>  (1) 
oracle

>  <origin>  (1) 
adg

>  <m_score__min__energy>  (1) 
-6.1699999999999999

>  <m_primary>  (1) 
energy

$$$$
1:0
     RDKit          3D

 45 46  0  0  0  0  0  0  0  0999 V2000
  142.5040  160.5730  133.9240 N   0  0  0  0  0  0  0  0  0  0  0  0
  143.8680  160.9460  133.7460 C   0  0  0  0  0  0  0  0  0  0  0  0
  144.1690  162.1650  133.6440 O   0  0  0  0  0  0  0  0  0  0  0  0
  144.9200  159.9190  133.6260 C   0  0  0  0  0  0  0  0  0  0  0  0
  146.2580  160.2130  133.3710 C   0  0  0  0  0  0  0  0  0  0  0  0
  146.8750  158.9920  133.2150 C   0  0  0  0  0  0  0  0  0  0  0  0
  148.2090  158.6880  132.9610 C   0  0  0  0  0  0  0  0  0  0  0  0
  148.5700  157.3320  132.8770 C   0  0  0  0  0  0  0  0  0  0  0  0
  147.5980  156.3100  133.0290 C   0  0  0  0  0  0  0  0  0  0  0  0
  148.0160  154.8630  132.9890 C   0  0  0  0  0  0  0  0  0  0  0  0
  147.0300  154.0800  132.4130 F   0  0  0  0  0  0  0  0  0  0  0  0
  148.2450  154.4220  134.2780 F   0  0  0  0  0  0  0  0  0  0  0  0
  149.1740  154.7150  132.2480 F   0  0  0  0  0  0  0  0  0  0  0  0
  146.2560  156.6620  133.3060 C   0  0  0  0  0  0  0  0  0  0  0  0
  145.9250  158.0190  133.3800 C   0  0  0  0  0  0  0  0  0  0  0  0
  144.7220  158.5720  133.6420 N   0  0  0  0  0  0  0  0  0  0  0  0
  143.5350  157.8580  134.0250 C   0  0  0  0  0  0  0  0  0  0  0  0
  143.1830  157.8360  135.2350 O   0  0  0  0  0  0  0  0  0  0  0  0
  142.6520  157.2250  132.9790 C   0  0  0  0  0  0  0  0  0  0  0  0
  141.3330  156.8400  133.5350 N   0  0  2  0  0  0  0  0  0  0  0  0
  140.7880  155.5750  132.9820 C   0  0  0  0  0  0  0  0  0  0  0  0
  141.1140  154.3500  133.7950 C   0  0  0  0  0  0  0  0  0  0  0  0
  141.6860  154.4620  134.9100 O   0  0  0  0  0  0  0  0  0  0  0  0
  140.7730  153.0880  133.3230 O   0  0  0  0  0  0  0  0  0  0  0  0
  140.3870  157.9320  133.3920 C   0  0  0  0  0  0  0  0  0  0  0  0
  140.7280  158.9830  132.8650 O   0  0  0  0  0  0  0  0  0  0  0  0
  138.9970  157.8210  133.9630 C   0  0  0  0  0  0  0  0  0  0  0  0
  138.9870  158.2470  135.4340 C   0  0  0  0  0  0  0  0  0  0  0  0
  140.3640  158.1710  136.0130 C   0  0  0  0  0  0  0  0  0  0  0  0
  141.0740  159.2060  136.0980 O   0  0  0  0  0  0  0  0  0  0  0  0
  140.8820  156.9460  136.4130 O   0  0  0  0  0  0  0  0  0  0  0  0
  142.2500  159.6390  134.3140 H   0  0  0  0  0  0  0  0  0  0  0  0
  146.7223  161.2082  133.3078 H   0  0  0  0  0  0  0  0  0  0  0  0
  148.9573  159.4836  132.8301 H   0  0  0  0  0  0  0  0  0  0  0  0
  149.6195  157.0600  132.6910 H   0  0  0  0  0  0  0  0  0  0  0  0
  145.4909  155.8867  133.4596 H   0  0  0  0  0  0  0  0  0  0  0  0
  142.4978  157.9434  132.1604 H   0  0  0  0  0  0  0  0  0  0  0  0
  143.1500  156.3141  132.6155 H   0  0  0  0  0  0  0  0  0  0  0  0
  141.4630  156.6740  134.5620 H   0  0  0  0  0  0  0  0  0  0  0  0
  139.6935  155.6682  132.9238 H   0  0  0  0  0  0  0  0  0  0  0  0
  141.2589  155.4336  131.9980 H   0  0  0  0  0  0  0  0  0  0  0  0
  138.3181  158.4721  133.3927 H   0  0  0  0  0  0  0  0  0  0  0  0
  138.6656  156.7744  133.8930 H   0  0  0  0  0  0  0  0  0  0  0  0
  138.6200  159.2813  135.5084 H   0  0  0  0  0  0  0  0  0  0  0  0
  138.3281  157.5683  135.9955 H   0  0  0  0  0  0  0  0  0  0  0  0
  1  2  1  0
  2  3  2  0
  2  4  1  0
  4  5  2  0
  5  6  1  0
  6  7  2  0
  7  8  1  0
  8  9  2  0
  9 10  1  0
 10 11  1  0
 10 12  1  0
 10 13  1  0
  9 14  1  0
 14 15  2  0
 15 16  1  0
 16 17  1  0
 17 18  2  0
 17 19  1  0
 19 20  1  0
 20 21  1  0
 21 22  1  0
 22 23  2  0
 22 24  1  0
 20 25  1  0
 25 26  2  0
 25 27  1  0
 27 28  1  0
 28 29  1  0
 29 30  2  0
 29 31  1  0
 16  4  1  0
 15  6  1  0
  1 32  1  0
  5 33  1  0
  7 34  1  0
  8 35  1  0
 14 36  1  0
 19 37  1  0
 19 38  1  0
 20 39  1  1
 21 40  1  0
 21 41  1  0
 27 42  1  0
 27 43  1  0
 28 44  1  0
 28 45  1  0
M  CHG  4   1  -1  20   1  24  -1  31  -1
M  END
>  <UniqueID>  (2) 
2

>  <SMILES>  (2) 
[NH-]C(=O)c1cc2ccc(C(F)(F)F)cc2n1C(=O)C[N@H+](CC(=O)[O-])C(=O)CCC(=O)[O-]

>  <Energy>  (2) 
84.38365021859096

>  <Genealogy>  (2) 
[NH-]C(=O)c1cc2ccc(C(F)(F)F)cc2n1C(=O)C[NH+](CC(=O)[O-])C(=O)CCC(=O)[O-] (protonated)
[NH-]C(=O)c1cc2ccc(C(F)(F)F)cc2n1C(=O)C[N@H+](CC(=O)[O-])C(=O)CCC(=O)[O-] (chirality)
[NH-]C(=O)c1cc2ccc(C(F)(F)F)cc2n1C(=O)C[N@H+](CC(=O)[O-])C(=O)CCC(=O)[O-] (3D coordinates assigned)
[NH-]C(=O)c1cc2ccc(C(F)(F)F)cc2n1C(=O)C[N@H+](CC(=O)[O-])C(=O)CCC(=O)[O-] (optimized conformer: 84.38365021859096 kcal/mol)

>  <smiles>  (2) 
NC(=O)c1cc2ccc(C(F)(F)F)cc2n1C(=O)CN(CC(=O)O)C(=O)CCC(=O)O

>  <score_type>  (2) 
oracle

>  <origin>  (2) 
adg

>  <m_score__min__energy>  (2) 
-6.6100000000000003

>  <m_primary>  (2) 
energy

$$$$
2:0
     RDKit          3D

 38 39  0  0  0  0  0  0  0  0999 V2000
  148.1280  154.9930  132.6630 C   0  0  0  0  0  0  0  0  0  0  0  0
  147.8180  156.4530  132.8140 C   0  0  0  0  0  0  0  0  0  0  0  0
  148.8590  157.4110  132.7410 C   0  0  0  0  0  0  0  0  0  0  0  0
  148.5840  158.7790  132.9060 C   0  0  0  0  0  0  0  0  0  0  0  0
  147.2690  159.1540  133.1630 C   0  0  0  0  0  0  0  0  0  0  0  0
  146.7250  160.4050  133.3520 C   0  0  0  0  0  0  0  0  0  0  0  0
  145.3660  160.1870  133.5730 C   0  0  0  0  0  0  0  0  0  0  0  0
  144.4130  161.2630  133.9170 C   0  0  0  0  0  0  0  0  0  0  0  0
  143.0140  161.0590  133.7290 N   0  0  0  0  0  0  0  0  0  0  0  0
  144.8210  162.3750  134.3440 O   0  0  0  0  0  0  0  0  0  0  0  0
  145.0810  158.8550  133.5150 N   0  0  0  0  0  0  0  0  0  0  0  0
  143.8000  158.2210  133.6450 C   0  0  0  0  0  0  0  0  0  0  0  0
  142.9920  158.2290  132.6760 O   0  0  0  0  0  0  0  0  0  0  0  0
  143.4580  157.5880  134.8460 O   0  0  0  0  0  0  0  0  0  0  0  0
  142.1160  157.2720  135.2080 C   0  0  0  0  0  0  0  0  0  0  0  0
  141.2270  158.4650  135.0390 C   0  0  0  0  0  0  0  0  0  0  0  0
  141.5940  159.5850  135.4870 O   0  0  0  0  0  0  0  0  0  0  0  0
  140.0150  158.3330  134.3530 O   0  0  0  0  0  0  0  0  0  0  0  0
  139.9340  157.8170  133.0300 C   0  0  0  0  0  0  0  0  0  0  0  0
  140.1140  158.9550  132.0300 C   0  0  0  0  0  0  0  0  0  0  0  0
  140.7860  160.0290  132.6300 O   0  0  0  0  0  0  0  0  0  0  0  0
  146.2560  158.2360  133.2680 C   0  0  0  0  0  0  0  0  0  0  0  0
  146.4970  156.8680  133.0910 C   0  0  0  0  0  0  0  0  0  0  0  0
  148.2255  154.5340  133.6579 H   0  0  0  0  0  0  0  0  0  0  0  0
  147.3144  154.5007  132.1102 H   0  0  0  0  0  0  0  0  0  0  0  0
  149.0715  154.8738  132.1102 H   0  0  0  0  0  0  0  0  0  0  0  0
  149.8915  157.0811  132.5535 H   0  0  0  0  0  0  0  0  0  0  0  0
  149.3840  159.5306  132.8342 H   0  0  0  0  0  0  0  0  0  0  0  0
  147.2510  161.3709  133.3327 H   0  0  0  0  0  0  0  0  0  0  0  0
  142.6110  160.0960  133.6990 H   0  0  0  0  0  0  0  0  0  0  0  0
  141.7515  156.4563  134.5663 H   0  0  0  0  0  0  0  0  0  0  0  0
  142.0978  156.9643  136.2639 H   0  0  0  0  0  0  0  0  0  0  0  0
  140.7250  157.0676  132.8794 H   0  0  0  0  0  0  0  0  0  0  0  0
  138.9510  157.3470  132.8786 H   0  0  0  0  0  0  0  0  0  0  0  0
  140.6999  158.5944  131.1717 H   0  0  0  0  0  0  0  0  0  0  0  0
  139.1235  159.2958  131.6941 H   0  0  0  0  0  0  0  0  0  0  0  0
  141.4330  159.6350  133.2710 H   0  0  0  0  0  0  0  0  0  0  0  0
  145.6791  156.1362  133.1657 H   0  0  0  0  0  0  0  0  0  0  0  0
  1  2  1  0
  2  3  2  0
  3  4  1  0
  4  5  2  0
  5  6  1  0
  6  7  2  0
  7  8  1  0
  8  9  1  0
  8 10  2  0
  7 11  1  0
 11 12  1  0
 12 13  2  0
 12 14  1  0
 14 15  1  0
 15 16  1  0
 16 17  2  0
 16 18  1  0
 18 19  1  0
 19 20  1  0
 20 21  1  0
 11 22  1  0
 22 23  2  0
 23  2  1  0
 22  5  1  0
  1 24  1  0
  1 25  1  0
  1 26  1  0
  3 27  1  0
  4 28  1  0
  6 29  1  0
  9 30  1  0
 15 31  1  0
 15 32  1  0
 19 33  1  0
 19 34  1  0
 20 35  1  0
 20 36  1  0
 21 37  1  0
 23 38  1  0
M  CHG  1   9  -1
M  END
>  <UniqueID>  (3) 
3

>  <SMILES>  (3) 
Cc1ccc2cc(C([NH-])=O)n(C(=O)OCC(=O)OCCO)c2c1

>  <Energy>  (3) 
68.45909791823905

>  <Genealogy>  (3) 
Cc1ccc2cc(C([NH-])=O)n(C(=O)OCC(=O)OCCO)c2c1 (protonated)
Cc1ccc2cc(C([NH-])=O)n(C(=O)OCC(=O)OCCO)c2c1 (3D coordinates assigned)
Cc1ccc2cc(C([NH-])=O)n(C(=O)OCC(=O)OCCO)c2c1 (optimized conformer: 68.45909791823905 kcal/mol)

>  <smiles>  (3) 
Cc1ccc2cc(C(N)=O)n(C(=O)OCC(=O)OCCO)c2c1

>  <score_type>  (3) 
oracle

>  <origin>  (3) 
adg

>  <m_score__min__energy>  (3) 
-5.0199999999999996

>  <m_primary>  (3) 
energy

$$$$
3:0
     RDKit          3D

 42 43  0  0  0  0  0  0  0  0999 V2000
  140.5770  158.6970  136.0140 C   0  0  0  0  0  0  0  0  0  0  0  0
  141.8830  158.7720  135.7380 C   0  0  0  0  0  0  0  0  0  0  0  0
  142.4710  158.1160  134.5200 C   0  0  0  0  0  0  0  0  0  0  0  0
  143.7460  158.8020  134.1090 C   0  0  0  0  0  0  0  0  0  0  0  0
  143.8140  160.2170  134.0660 C   0  0  0  0  0  0  0  0  0  0  0  0
  144.9880  160.8660  133.6450 C   0  0  0  0  0  0  0  0  0  0  0  0
  146.0710  160.0750  133.2720 C   0  0  0  0  0  0  0  0  0  0  0  0
  147.3140  160.4350  132.8000 C   0  0  0  0  0  0  0  0  0  0  0  0
  147.9820  159.2340  132.5680 C   0  0  0  0  0  0  0  0  0  0  0  0
  149.3840  159.1490  132.1120 C   0  0  0  0  0  0  0  0  0  0  0  0
  150.0100  157.8750  131.9720 N   0  0  0  0  0  0  0  0  0  0  0  0
  150.0280  160.1890  131.8170 O   0  0  0  0  0  0  0  0  0  0  0  0
  147.1830  158.1770  132.8800 N   0  0  0  0  0  0  0  0  0  0  0  0
  147.4550  156.7760  132.7110 C   0  0  0  0  0  0  0  0  0  0  0  0
  146.9780  156.1740  131.7090 O   0  0  0  0  0  0  0  0  0  0  0  0
  148.3900  156.1070  133.5900 N   0  0  2  0  0  0  0  0  0  0  0  0
  148.7340  154.8070  132.9870 C   0  0  0  0  0  0  0  0  0  0  0  0
  147.8190  155.9490  134.9570 C   0  0  0  0  0  0  0  0  0  0  0  0
  147.2570  154.5360  135.2160 C   0  0  0  0  0  0  0  0  0  0  0  0
  147.7050  153.9720  136.5260 C   0  0  0  0  0  0  0  0  0  0  0  0
  148.7060  154.4560  137.1150 O   0  0  0  0  0  0  0  0  0  0  0  0
  147.0060  152.9210  137.1060 O   0  0  0  0  0  0  0  0  0  0  0  0
  146.0200  158.7070  133.3120 C   0  0  0  0  0  0  0  0  0  0  0  0
  144.8630  158.0340  133.7160 C   0  0  0  0  0  0  0  0  0  0  0  0
  140.1758  159.1875  136.9131 H   0  0  0  0  0  0  0  0  0  0  0  0
  139.9036  158.1448  135.3420 H   0  0  0  0  0  0  0  0  0  0  0  0
  142.5439  159.3278  136.4194 H   0  0  0  0  0  0  0  0  0  0  0  0
  142.6853  157.0610  134.7461 H   0  0  0  0  0  0  0  0  0  0  0  0
  141.7477  158.1903  133.6946 H   0  0  0  0  0  0  0  0  0  0  0  0
  142.9394  160.8135  134.3650 H   0  0  0  0  0  0  0  0  0  0  0  0
  145.0488  161.9638  133.6115 H   0  0  0  0  0  0  0  0  0  0  0  0
  147.6977  161.4535  132.6402 H   0  0  0  0  0  0  0  0  0  0  0  0
  149.5230  157.0890  131.4870 H   0  0  0  0  0  0  0  0  0  0  0  0
  149.2650  156.6790  133.6310 H   0  0  0  0  0  0  0  0  0  0  0  0
  148.9281  154.0734  133.7833 H   0  0  0  0  0  0  0  0  0  0  0  0
  147.8970  154.4589  132.3638 H   0  0  0  0  0  0  0  0  0  0  0  0
  149.6336  154.9184  132.3638 H   0  0  0  0  0  0  0  0  0  0  0  0
  148.6108  156.1517  135.6932 H   0  0  0  0  0  0  0  0  0  0  0  0
  146.9825  156.6575  135.0480 H   0  0  0  0  0  0  0  0  0  0  0  0
  146.1582  154.5873  135.2115 H   0  0  0  0  0  0  0  0  0  0  0  0
  147.6348  153.8756  134.4215 H   0  0  0  0  0  0  0  0  0  0  0  0
  144.8243  156.9347  133.7273 H   0  0  0  0  0  0  0  0  0  0  0  0
  1  2  2  0
  2  3  1  0
  3  4  1  0
  4  5  2  0
  5  6  1  0
  6  7  2  0
  7  8  1  0
  8  9  2  0
  9 10  1  0
 10 11  1  0
 10 12  2  0
  9 13  1  0
 13 14  1  0
 14 15  2  0
 14 16  1  0
 16 17  1  0
 16 18  1  0
 18 19  1  0
 19 20  1  0
 20 21  2  0
 20 22  1  0
 13 23  1  0
 23 24  2  0
 24  4  1  0
 23  7  1  0
  1 25  1  0
  1 26  1  0
  2 27  1  0
  3 28  1  0
  3 29  1  0
  5 30  1  0
  6 31  1  0
  8 32  1  0
 11 33  1  0
 16 34  1  1
 17 35  1  0
 17 36  1  0
 17 37  1  0
 18 38  1  0
 18 39  1  0
 19 40  1  0
 19 41  1  0
 24 42  1  0
M  CHG  3  11  -1  16   1  22  -1
M  END
>  <UniqueID>  (4) 
4

>  <SMILES>  (4) 
C=CCc1ccc2cc(C([NH-])=O)n(C(=O)[N@H+](C)CCC(=O)[O-])c2c1

>  <Energy>  (4) 
80.05775535688184

>  <Genealogy>  (4) 
C=CCc1ccc2cc(C([NH-])=O)n(C(=O)[NH+](C)CCC(=O)[O-])c2c1 (protonated)
C=CCc1ccc2cc(C([NH-])=O)n(C(=O)[N@H+](C)CCC(=O)[O-])c2c1 (chirality)
C=CCc1ccc2cc(C([NH-])=O)n(C(=O)[N@H+](C)CCC(=O)[O-])c2c1 (3D coordinates assigned)
C=CCc1ccc2cc(C([NH-])=O)n(C(=O)[N@H+](C)CCC(=O)[O-])c2c1 (optimized conformer: 80.05775535688184 kcal/mol)

>  <smiles>  (4) 
C=CCc1ccc2cc(C(N)=O)n(C(=O)N(C)CCC(=O)O)c2c1

>  <score_type>  (4) 
oracle

>  <origin>  (4) 
adg

>  <m_score__min__energy>  (4) 
-6.8799999999999999

>  <m_primary>  (4) 
energy

$$$$
4:0
     RDKit          3D

 39 40  0  0  0  0  0  0  0  0999 V2000
  149.0210  161.7540  130.3920 C   0  0  0  0  0  0  0  0  0  0  0  0
  148.8840  160.4720  131.1590 C   0  0  0  0  0  0  0  0  0  0  0  0
  149.9720  159.5680  131.2390 C   0  0  0  0  0  0  0  0  0  0  0  0
  149.8430  158.3530  131.9380 C   0  0  0  0  0  0  0  0  0  0  0  0
  148.6120  158.0650  132.5210 C   0  0  0  0  0  0  0  0  0  0  0  0
  148.2160  156.9810  133.2750 C   0  0  0  0  0  0  0  0  0  0  0  0
  146.8850  157.2310  133.6070 C   0  0  0  0  0  0  0  0  0  0  0  0
  146.0390  156.3060  134.3870 C   0  0  0  0  0  0  0  0  0  0  0  0
  144.6310  156.2640  134.1580 N   0  0  0  0  0  0  0  0  0  0  0  0
  146.5420  155.5670  135.2740 O   0  0  0  0  0  0  0  0  0  0  0  0
  146.4770  158.4170  133.0770 N   0  0  0  0  0  0  0  0  0  0  0  0
  145.2160  159.0710  133.2510 C   0  0  0  0  0  0  0  0  0  0  0  0
  144.2060  158.6590  132.6150 O   0  0  0  0  0  0  0  0  0  0  0  0
  145.1150  160.3170  134.0760 C   0  0  0  0  0  0  0  0  0  0  0  0
  143.7290  160.8880  133.9550 C   0  0  0  0  0  0  0  0  0  0  0  0
  143.6090  162.1200  133.7080 O   0  0  0  0  0  0  0  0  0  0  0  0
  142.5540  160.0860  134.1990 N   0  0  0  0  0  0  0  0  0  0  0  0
  141.3950  160.1660  133.3010 C   0  0  0  0  0  0  0  0  0  0  0  0
  142.4600  159.2770  135.4200 C   0  0  0  0  0  0  0  0  0  0  0  0
  141.0510  159.2490  135.9180 C   0  0  0  0  0  0  0  0  0  0  0  0
  140.6500  160.1190  136.7330 O   0  0  0  0  0  0  0  0  0  0  0  0
  140.1660  158.2890  135.4450 O   0  0  0  0  0  0  0  0  0  0  0  0
  147.5430  158.9160  132.4190 C   0  0  0  0  0  0  0  0  0  0  0  0
  147.6460  160.1380  131.7490 C   0  0  0  0  0  0  0  0  0  0  0  0
  149.1108  162.5946  131.0958 H   0  0  0  0  0  0  0  0  0  0  0  0
  149.9194  161.7083  129.7589 H   0  0  0  0  0  0  0  0  0  0  0  0
  148.1332  161.8992  129.7589 H   0  0  0  0  0  0  0  0  0  0  0  0
  150.9256  159.8177  130.7508 H   0  0  0  0  0  0  0  0  0  0  0  0
  150.6878  157.6534  132.0210 H   0  0  0  0  0  0  0  0  0  0  0  0
  148.8208  156.1058  133.5549 H   0  0  0  0  0  0  0  0  0  0  0  0
  144.0630  157.1390  134.1430 H   0  0  0  0  0  0  0  0  0  0  0  0
  145.3219  160.0770  135.1294 H   0  0  0  0  0  0  0  0  0  0  0  0
  145.8478  161.0546  133.7170 H   0  0  0  0  0  0  0  0  0  0  0  0
  140.4728  160.2297  133.8973 H   0  0  0  0  0  0  0  0  0  0  0  0
  141.4838  161.0602  132.6665 H   0  0  0  0  0  0  0  0  0  0  0  0
  141.3601  159.2681  132.6665 H   0  0  0  0  0  0  0  0  0  0  0  0
  142.7876  158.2501  135.2007 H   0  0  0  0  0  0  0  0  0  0  0  0
  143.1036  159.7214  136.1935 H   0  0  0  0  0  0  0  0  0  0  0  0
  146.7860  160.8207  131.6832 H   0  0  0  0  0  0  0  0  0  0  0  0
  1  2  1  0
  2  3  2  0
  3  4  1  0
  4  5  2  0
  5  6  1  0
  6  7  2  0
  7  8  1  0
  8  9  1  0
  8 10  2  0
  7 11  1  0
 11 12  1  0
 12 13  2  0
 12 14  1  0
 14 15  1  0
 15 16  2  0
 15 17  1  0
 17 18  1  0
 17 19  1  0
 19 20  1  0
 20 21  2  0
 20 22  1  0
 11 23  1  0
 23 24  2  0
 24  2  1  0
 23  5  1  0
  1 25  1  0
  1 26  1  0
  1 27  1  0
  3 28  1  0
  4 29  1  0
  6 30  1  0
  9 31  1  0
 14 32  1  0
 14 33  1  0
 18 34  1  0
 18 35  1  0
 18 36  1  0
 19 37  1  0
 19 38  1  0
 24 39  1  0
M  CHG  2   9  -1  22  -1
M  END
>  <UniqueID>  (5) 
5

>  <SMILES>  (5) 
Cc1ccc2cc(C([NH-])=O)n(C(=O)CC(=O)N(C)CC(=O)[O-])c2c1

>  <Energy>  (5) 
71.98966292432975

>  <Genealogy>  (5) 
Cc1ccc2cc(C([NH-])=O)n(C(=O)CC(=O)N(C)CC(=O)[O-])c2c1 (protonated)
Cc1ccc2cc(C([NH-])=O)n(C(=O)CC(=O)N(C)CC(=O)[O-])c2c1 (3D coordinates assigned)
Cc1ccc2cc(C([NH-])=O)n(C(=O)CC(=O)N(C)CC(=O)[O-])c2c1 (optimized conformer: 71.98966292432975 kcal/mol)

>  <smiles>  (5) 
Cc1ccc2cc(C(N)=O)n(C(=O)CC(=O)N(C)CC(=O)O)c2c1

>  <score_type>  (5) 
oracle

>  <origin>  (5) 
adg

>  <m_score__min__energy>  (5) 
-6.7000000000000002

>  <m_primary>  (5) 
energy

$$$$
5:0
     RDKit          3D

 42 43  0  0  0  0  0  0  0  0999 V2000
  140.9870  156.4440  136.2080 C   0  0  0  0  0  0  0  0  0  0  0  0
  141.6430  156.9870  134.9260 C   0  0  2  0  0  0  0  0  0  0  0  0
  143.4710  156.6930  134.8320 S   0  0  0  0  0  0  0  0  0  0  0  0
  143.8970  157.6720  133.3770 C   0  0  0  0  0  0  0  0  0  0  0  0
  143.1020  157.6930  132.4000 O   0  0  0  0  0  0  0  0  0  0  0  0
  145.1360  158.4000  133.3050 N   0  0  0  0  0  0  0  0  0  0  0  0
  145.3200  159.7500  133.3210 C   0  0  0  0  0  0  0  0  0  0  0  0
  144.2970  160.7580  133.6590 C   0  0  0  0  0  0  0  0  0  0  0  0
  142.9170  160.5080  133.4080 N   0  0  0  0  0  0  0  0  0  0  0  0
  144.6380  161.8260  134.2360 O   0  0  0  0  0  0  0  0  0  0  0  0
  146.6570  160.0670  133.0990 C   0  0  0  0  0  0  0  0  0  0  0  0
  147.3000  158.8580  132.9660 C   0  0  0  0  0  0  0  0  0  0  0  0
  148.6430  158.5790  132.7290 C   0  0  0  0  0  0  0  0  0  0  0  0
  149.0260  157.2330  132.6190 C   0  0  0  0  0  0  0  0  0  0  0  0
  148.0680  156.1960  132.7440 C   0  0  0  0  0  0  0  0  0  0  0  0
  148.4960  154.7630  132.6050 C   0  0  0  0  0  0  0  0  0  0  0  0
  149.8330  154.7090  132.2550 F   0  0  0  0  0  0  0  0  0  0  0  0
  148.3120  154.1030  133.8060 F   0  0  0  0  0  0  0  0  0  0  0  0
  146.7140  156.5170  132.9860 C   0  0  0  0  0  0  0  0  0  0  0  0
  146.3620  157.8680  133.1020 C   0  0  0  0  0  0  0  0  0  0  0  0
  141.2410  158.3920  134.6210 N   0  0  2  0  0  0  0  0  0  0  0  0
  141.6120  159.2880  135.7370 C   0  0  0  0  0  0  0  0  0  0  0  0
  139.7990  158.5360  134.2980 C   0  0  0  0  0  0  0  0  0  0  0  0
  139.5850  158.8710  132.8490 C   0  0  0  0  0  0  0  0  0  0  0  0
  138.4190  158.9280  132.3750 O   0  0  0  0  0  0  0  0  0  0  0  0
  140.6740  159.1440  132.0310 O   0  0  0  0  0  0  0  0  0  0  0  0
  141.4962  156.8655  137.0872 H   0  0  0  0  0  0  0  0  0  0  0  0
  139.9253  156.7311  136.2265 H   0  0  0  0  0  0  0  0  0  0  0  0
  141.0707  155.3473  136.2265 H   0  0  0  0  0  0  0  0  0  0  0  0
  141.2315  156.3783  134.1074 H   0  0  0  0  0  0  0  0  0  0  0  0
  142.6200  159.7950  132.7060 H   0  0  0  0  0  0  0  0  0  0  0  0
  147.1042  161.0704  133.0420 H   0  0  0  0  0  0  0  0  0  0  0  0
  149.3814  159.3884  132.6309 H   0  0  0  0  0  0  0  0  0  0  0  0
  150.0805  156.9805  132.4339 H   0  0  0  0  0  0  0  0  0  0  0  0
  147.8907  154.2801  131.8237 H   0  0  0  0  0  0  0  0  0  0  0  0
  145.9552  155.7263  133.0809 H   0  0  0  0  0  0  0  0  0  0  0  0
  141.8000  158.7020  133.7900 H   0  0  0  0  0  0  0  0  0  0  0  0
  141.4045  158.7869  136.6940 H   0  0  0  0  0  0  0  0  0  0  0  0
  142.6836  159.5282  135.6736 H   0  0  0  0  0  0  0  0  0  0  0  0
  141.0239  160.2154  135.6736 H   0  0  0  0  0  0  0  0  0  0  0  0
  139.2867  157.5893  134.5245 H   0  0  0  0  0  0  0  0  0  0  0  0
  139.3923  159.3590  134.9040 H   0  0  0  0  0  0  0  0  0  0  0  0
  1  2  1  0
  2  3  1  0
  3  4  1  0
  4  5  2  0
  4  6  1  0
  6  7  1  0
  7  8  1  0
  8  9  1  0
  8 10  2  0
  7 11  2  0
 11 12  1  0
 12 13  2  0
 13 14  1  0
 14 15  2  0
 15 16  1  0
 16 17  1  0
 16 18  1  0
 15 19  1  0
 19 20  2  0
  2 21  1  0
 21 22  1  0
 21 23  1  0
 23 24  1  0
 24 25  2  0
 24 26  1  0
 20  6  1  0
 20 12  1  0
  1 27  1  0
  1 28  1  0
  1 29  1  0
  2 30  1  6
  9 31  1  0
 11 32  1  0
 13 33  1  0
 14 34  1  0
 16 35  1  0
 19 36  1  0
 21 37  1  6
 22 38  1  0
 22 39  1  0
 22 40  1  0
 23 41  1  0
 23 42  1  0
M  CHG  3   9  -1  21   1  26  -1
M  END
>  <UniqueID>  (6) 
6

>  <SMILES>  (6) 
C[C@H](SC(=O)n1c(C([NH-])=O)cc2ccc(C(F)F)cc21)[N@H+](C)CC(=O)[O-]

>  <Energy>  (6) 
86.39212049440633

>  <Genealogy>  (6) 
CC(SC(=O)n1c(C([NH-])=O)cc2ccc(C(F)F)cc21)[NH+](C)CC(=O)[O-] (protonated)
C[C@H](SC(=O)n1c(C([NH-])=O)cc2ccc(C(F)F)cc21)[N@H+](C)CC(=O)[O-] (chirality)
C[C@H](SC(=O)n1c(C([NH-])=O)cc2ccc(C(F)F)cc21)[N@H+](C)CC(=O)[O-] (3D coordinates assigned)
C[C@H](SC(=O)n1c(C([NH-])=O)cc2ccc(C(F)F)cc21)[N@H+](C)CC(=O)[O-] (optimized conformer: 86.39212049440633 kcal/mol)

>  <smiles>  (6) 
CC(SC(=O)n1c(C(N)=O)cc2ccc(C(F)F)cc21)N(C)CC(=O)O

>  <score_type>  (6) 
oracle

>  <origin>  (6) 
adg

>  <m_score__min__energy>  (6) 
-5.8799999999999999

>  <m_primary>  (6) 
energy

$$$$
6:0
     RDKit          3D

 46 49  0  0  0  0  0  0  0  0999 V2000
  146.8980  154.0370  134.1600 C   0  0  0  0  0  0  0  0  0  0  0  0
  145.5910  154.5210  134.7040 C   0  0  0  0  0  0  0  0  0  0  0  0
  144.7430  155.2770  133.9820 N   0  0  0  0  0  0  0  0  0  0  0  0
  143.6620  155.4840  134.7590 C   0  0  0  0  0  0  0  0  0  0  0  0
  142.4800  156.2270  134.2670 C   0  0  0  0  0  0  0  0  0  0  0  0
  141.5260  155.6220  133.7080 O   0  0  0  0  0  0  0  0  0  0  0  0
  142.4160  157.6550  134.4050 N   0  0  0  0  0  0  0  0  0  0  0  0
  141.3500  158.4070  134.7970 C   0  0  0  0  0  0  0  0  0  0  0  0
  140.0500  157.8860  135.2750 C   0  0  0  0  0  0  0  0  0  0  0  0
  139.7220  157.8880  136.6620 N   0  0  0  0  0  0  0  0  0  0  0  0
  139.2070  157.4600  134.4420 O   0  0  0  0  0  0  0  0  0  0  0  0
  141.6680  159.7640  134.7460 C   0  0  0  0  0  0  0  0  0  0  0  0
  142.9710  159.8170  134.3040 C   0  0  0  0  0  0  0  0  0  0  0  0
  143.7940  160.9130  134.0670 C   0  0  0  0  0  0  0  0  0  0  0  0
  145.0970  160.6710  133.6000 C   0  0  0  0  0  0  0  0  0  0  0  0
  145.5520  159.3450  133.3680 C   0  0  0  0  0  0  0  0  0  0  0  0
  146.9330  159.0960  132.8840 C   0  0  0  0  0  0  0  0  0  0  0  0
  147.5440  157.8420  133.0740 C   0  0  0  0  0  0  0  0  0  0  0  0
  148.8450  157.6120  132.6160 C   0  0  0  0  0  0  0  0  0  0  0  0
  149.5490  158.6280  131.9640 C   0  0  0  0  0  0  0  0  0  0  0  0
  148.9530  159.8760  131.7690 C   0  0  0  0  0  0  0  0  0  0  0  0
  147.6530  160.1120  132.2260 C   0  0  0  0  0  0  0  0  0  0  0  0
  144.6780  158.2600  133.6110 C   0  0  0  0  0  0  0  0  0  0  0  0
  143.3960  158.5320  134.1020 C   0  0  0  0  0  0  0  0  0  0  0  0
  143.8290  154.8780  136.0020 C   0  0  0  0  0  0  0  0  0  0  0  0
  142.8580  154.8890  137.1500 C   0  0  0  0  0  0  0  0  0  0  0  0
  145.0600  154.2330  135.9550 C   0  0  0  0  0  0  0  0  0  0  0  0
  145.6650  153.3650  136.9900 C   0  0  0  0  0  0  0  0  0  0  0  0
  144.9790  152.9680  137.9680 O   0  0  0  0  0  0  0  0  0  0  0  0
  147.0030  153.0000  136.9170 O   0  0  0  0  0  0  0  0  0  0  0  0
  147.5719  153.7874  134.9928 H   0  0  0  0  0  0  0  0  0  0  0  0
  146.7296  153.1416  133.5436 H   0  0  0  0  0  0  0  0  0  0  0  0
  147.3534  154.8261  133.5436 H   0  0  0  0  0  0  0  0  0  0  0  0
  139.0960  158.6210  137.0640 H   0  0  0  0  0  0  0  0  0  0  0  0
  141.0163  160.6118  135.0041 H   0  0  0  0  0  0  0  0  0  0  0  0
  143.4356  161.9385  134.2400 H   0  0  0  0  0  0  0  0  0  0  0  0
  145.7729  161.5182  133.4118 H   0  0  0  0  0  0  0  0  0  0  0  0
  146.9946  157.0382  133.5859 H   0  0  0  0  0  0  0  0  0  0  0  0
  149.3152  156.6294  132.7692 H   0  0  0  0  0  0  0  0  0  0  0  0
  150.5723  158.4449  131.6045 H   0  0  0  0  0  0  0  0  0  0  0  0
  149.5076  160.6748  131.2548 H   0  0  0  0  0  0  0  0  0  0  0  0
  147.1895  161.0974  132.0707 H   0  0  0  0  0  0  0  0  0  0  0  0
  144.9986  157.2255  133.4184 H   0  0  0  0  0  0  0  0  0  0  0  0
  143.4130  154.8827  138.0997 H   0  0  0  0  0  0  0  0  0  0  0  0
  142.2355  155.7943  137.0951 H   0  0  0  0  0  0  0  0  0  0  0  0
  142.2152  153.9981  137.0951 H   0  0  0  0  0  0  0  0  0  0  0  0
  1  2  1  0
  2  3  1  0
  3  4  1  0
  4  5  1  0
  5  6  2  0
  5  7  1  0
  7  8  1  0
  8  9  1  0
  9 10  1  0
  9 11  2  0
  8 12  2  0
 12 13  1  0
 13 14  2  0
 14 15  1  0
 15 16  2  0
 16 17  1  0
 17 18  2  0
 18 19  1  0
 19 20  2  0
 20 21  1  0
 21 22  2  0
 16 23  1  0
 23 24  2  0
  4 25  2  0
 25 26  1  0
 25 27  1  0
 27 28  1  0
 28 29  2  0
 28 30  1  0
 27  2  2  0
 24  7  1  0
 24 13  1  0
 22 17  1  0
  1 31  1  0
  1 32  1  0
  1 33  1  0
 10 34  1  0
 12 35  1  0
 14 36  1  0
 15 37  1  0
 18 38  1  0
 19 39  1  0
 20 40  1  0
 21 41  1  0
 22 42  1  0
 23 43  1  0
 26 44  1  0
 26 45  1  0
 26 46  1  0
M  CHG  3   3  -1  10  -1  30  -1
M  END
>  <UniqueID>  (7) 
7

>  <SMILES>  (7) 
Cc1[n-]c(C(=O)n2c(C([NH-])=O)cc3ccc(-c4ccccc4)cc32)c(C)c1C(=O)[O-]

>  <Energy>  (7) 
121.81627985553085

>  <Genealogy>  (7) 
Cc1[n-]c(C(=O)n2c(C([NH-])=O)cc3ccc(-c4ccccc4)cc32)c(C)c1C(=O)[O-] (protonated)
Cc1[n-]c(C(=O)n2c(C([NH-])=O)cc3ccc(-c4ccccc4)cc32)c(C)c1C(=O)[O-] (3D coordinates assigned)
Cc1[n-]c(C(=O)n2c(C([NH-])=O)cc3ccc(-c4ccccc4)cc32)c(C)c1C(=O)[O-] (optimized conformer: 121.81627985553085 kcal/mol)

>  <smiles>  (7) 
Cc1[nH]c(C(=O)n2c(C(N)=O)cc3ccc(-c4ccccc4)cc32)c(C)c1C(=O)O

>  <score_type>  (7) 
oracle

>  <origin>  (7) 
adg

>  <m_score__min__energy>  (7) 
-9.5800000000000001

>  <m_primary>  (7) 
energy

$$$$
7:0
     RDKit          3D

 31 32  0  0  0  0  0  0  0  0999 V2000
  141.3110  159.3670  132.5140 N   0  0  0  0  0  0  0  0  0  0  0  0
  142.2090  160.0060  133.4180 C   0  0  0  0  0  0  0  0  0  0  0  0
  141.7850  160.9350  134.1540 O   0  0  0  0  0  0  0  0  0  0  0  0
  143.6390  159.6330  133.4600 C   0  0  0  0  0  0  0  0  0  0  0  0
  144.6730  160.5660  133.4310 C   0  0  0  0  0  0  0  0  0  0  0  0
  145.8310  159.8250  133.3870 C   0  0  0  0  0  0  0  0  0  0  0  0
  147.1600  160.2420  133.3530 C   0  0  0  0  0  0  0  0  0  0  0  0
  148.1590  159.2530  133.3400 C   0  0  0  0  0  0  0  0  0  0  0  0
  147.8150  157.8810  133.3690 C   0  0  0  0  0  0  0  0  0  0  0  0
  148.8410  156.8860  133.3680 N   0  0  0  0  0  0  0  0  0  0  0  0
  146.4580  157.4950  133.4050 C   0  0  0  0  0  0  0  0  0  0  0  0
  145.4820  158.4990  133.3990 C   0  0  0  0  0  0  0  0  0  0  0  0
  144.1380  158.3650  133.4480 N   0  0  0  0  0  0  0  0  0  0  0  0
  143.4130  157.1290  133.5480 C   0  0  0  0  0  0  0  0  0  0  0  0
  142.5400  156.8390  132.6850 O   0  0  0  0  0  0  0  0  0  0  0  0
  143.6630  156.2620  134.6150 O   0  0  0  0  0  0  0  0  0  0  0  0
  144.6570  155.2420  134.5660 C   0  0  0  0  0  0  0  0  0  0  0  0
  145.3980  155.2330  135.7630 O   0  0  0  0  0  0  0  0  0  0  0  0
  146.9890  154.7120  135.4300 P   0  0  0  0  0  0  0  0  0  0  0  0
  147.1280  154.3780  133.9620 O   0  0  0  0  0  0  0  0  0  0  0  0
  148.1100  155.9110  135.8460 O   0  0  0  0  0  0  0  0  0  0  0  0
  147.3110  153.3240  136.3420 O   0  0  0  0  0  0  0  0  0  0  0  0
  141.6440  158.6260  131.8590 H   0  0  0  0  0  0  0  0  0  0  0  0
  144.5827  161.6622  133.4411 H   0  0  0  0  0  0  0  0  0  0  0  0
  147.4193  161.3109  133.3368 H   0  0  0  0  0  0  0  0  0  0  0  0
  149.2180  159.5486  133.3070 H   0  0  0  0  0  0  0  0  0  0  0  0
  148.6560  155.9270  133.7380 H   0  0  0  0  0  0  0  0  0  0  0  0
  149.7940  157.1010  132.9990 H   0  0  0  0  0  0  0  0  0  0  0  0
  146.1743  156.4327  133.4369 H   0  0  0  0  0  0  0  0  0  0  0  0
  144.1698  154.2649  134.4319 H   0  0  0  0  0  0  0  0  0  0  0  0
  145.3356  155.4397  133.7231 H   0  0  0  0  0  0  0  0  0  0  0  0
  1  2  1  0
  2  3  2  0
  2  4  1  0
  4  5  2  0
  5  6  1  0
  6  7  2  0
  7  8  1  0
  8  9  2  0
  9 10  1  0
  9 11  1  0
 11 12  2  0
 12 13  1  0
 13 14  1  0
 14 15  2  0
 14 16  1  0
 16 17  1  0
 17 18  1  0
 18 19  1  0
 19 20  2  0
 19 21  1  0
 19 22  1  0
 13  4  1  0
 12  6  1  0
  1 23  1  0
  5 24  1  0
  7 25  1  0
  8 26  1  0
 10 27  1  0
 10 28  1  0
 11 29  1  0
 17 30  1  0
 17 31  1  0
M  CHG  3   1  -1  21  -1  22  -1
M  END
>  <UniqueID>  (8) 
8

>  <SMILES>  (8) 
[NH-]C(=O)c1cc2ccc(N)cc2n1C(=O)OCOP(=O)([O-])[O-]

>  <Energy>  (8) 
67.71687622585085

>  <Genealogy>  (8) 
[NH-]C(=O)c1cc2ccc(N)cc2n1C(=O)OCOP(=O)([O-])[O-] (protonated)
[NH-]C(=O)c1cc2ccc(N)cc2n1C(=O)OCOP(=O)([O-])[O-] (3D coordinates assigned)
[NH-]C(=O)c1cc2ccc(N)cc2n1C(=O)OCOP(=O)([O-])[O-] (optimized conformer: 67.71687622585085 kcal/mol)

>  <smiles>  (8) 
NC(=O)c1cc2ccc(N)cc2n1C(=O)OCOP(=O)(O)O

>  <score_type>  (8) 
oracle

>  <origin>  (8) 
adg

>  <m_score__min__energy>  (8) 
-5.6699999999999999

>  <m_primary>  (8) 
energy

$$$$
8:0
     RDKit          3D

 48 50  0  0  0  0  0  0  0  0999 V2000
  141.5010  152.1630  135.9630 N   0  0  0  0  0  0  0  0  0  0  0  0
  142.0390  153.3100  136.6150 C   0  0  0  0  0  0  0  0  0  0  0  0
  142.8170  153.1550  137.5940 O   0  0  0  0  0  0  0  0  0  0  0  0
  141.6730  154.6630  136.1490 C   0  0  0  0  0  0  0  0  0  0  0  0
  141.6240  155.7890  136.9700 C   0  0  0  0  0  0  0  0  0  0  0  0
  141.2790  156.8320  136.1360 C   0  0  0  0  0  0  0  0  0  0  0  0
  141.0890  158.1810  136.4150 C   0  0  0  0  0  0  0  0  0  0  0  0
  140.7340  159.0310  135.3530 C   0  0  0  0  0  0  0  0  0  0  0  0
  140.5930  158.5250  134.0330 C   0  0  0  0  0  0  0  0  0  0  0  0
  140.1680  159.4460  132.9180 C   0  0  0  0  0  0  0  0  0  0  0  0
  140.6840  160.7140  133.1200 F   0  0  0  0  0  0  0  0  0  0  0  0
  138.7880  159.5180  132.8880 F   0  0  0  0  0  0  0  0  0  0  0  0
  140.6200  158.9840  131.6940 F   0  0  0  0  0  0  0  0  0  0  0  0
  140.7760  157.1420  133.7950 C   0  0  0  0  0  0  0  0  0  0  0  0
  141.1290  156.3250  134.8720 C   0  0  0  0  0  0  0  0  0  0  0  0
  141.3650  154.9980  134.8670 N   0  0  0  0  0  0  0  0  0  0  0  0
  141.2730  154.1270  133.7310 C   0  0  0  0  0  0  0  0  0  0  0  0
  140.1400  153.8500  133.2550 O   0  0  0  0  0  0  0  0  0  0  0  0
  142.5050  153.4750  133.1520 C   0  0  1  0  0  0  0  0  0  0  0  0
  143.3780  153.0750  134.1810 O   0  0  0  0  0  0  0  0  0  0  0  0
  142.1230  152.2870  132.2310 C   0  0  0  0  0  0  0  0  0  0  0  0
  141.9970  151.0110  132.9790 N   0  0  0  0  0  0  0  0  0  0  0  0
  142.6820  149.8770  132.2960 C   0  0  0  0  0  0  0  0  0  0  0  0
  141.7260  148.8570  131.6390 C   0  0  0  0  0  0  0  0  0  0  0  0
  140.4850  149.5540  131.0640 C   0  0  0  0  0  0  0  0  0  0  0  0
  139.5910  148.5630  130.3680 C   0  0  0  0  0  0  0  0  0  0  0  0
  139.5370  147.3650  130.7580 O   0  0  0  0  0  0  0  0  0  0  0  0
  138.8170  148.9670  129.2870 O   0  0  0  0  0  0  0  0  0  0  0  0
  139.7190  150.3280  132.1640 C   0  0  0  0  0  0  0  0  0  0  0  0
  140.6100  150.6750  133.3720 C   0  0  0  0  0  0  0  0  0  0  0  0
  141.7380  151.9500  134.9680 H   0  0  0  0  0  0  0  0  0  0  0  0
  141.8188  155.8355  138.0516 H   0  0  0  0  0  0  0  0  0  0  0  0
  141.2128  158.5713  137.4360 H   0  0  0  0  0  0  0  0  0  0  0  0
  140.5634  160.1004  135.5463 H   0  0  0  0  0  0  0  0  0  0  0  0
  140.6437  156.7209  132.7875 H   0  0  0  0  0  0  0  0  0  0  0  0
  143.0330  154.2130  132.5302 H   0  0  0  0  0  0  0  0  0  0  0  0
  143.0690  152.1920  134.5190 H   0  0  0  0  0  0  0  0  0  0  0  0
  141.1605  152.5099  131.7473 H   0  0  0  0  0  0  0  0  0  0  0  0
  142.9266  152.1643  131.4900 H   0  0  0  0  0  0  0  0  0  0  0  0
  143.3348  150.2905  131.5131 H   0  0  0  0  0  0  0  0  0  0  0  0
  143.2374  149.3315  133.0732 H   0  0  0  0  0  0  0  0  0  0  0  0
  142.2564  148.3394  130.8261 H   0  0  0  0  0  0  0  0  0  0  0  0
  141.3998  148.1393  132.4062 H   0  0  0  0  0  0  0  0  0  0  0  0
  140.8212  150.2883  130.3171 H   0  0  0  0  0  0  0  0  0  0  0  0
  139.3308  151.2623  131.7323 H   0  0  0  0  0  0  0  0  0  0  0  0
  138.9064  149.6798  132.5239 H   0  0  0  0  0  0  0  0  0  0  0  0
  140.1733  151.5383  133.8953 H   0  0  0  0  0  0  0  0  0  0  0  0
  140.6533  149.7870  134.0198 H   0  0  0  0  0  0  0  0  0  0  0  0
  1  2  1  0
  2  3  2  0
  2  4  1  0
  4  5  2  0
  5  6  1  0
  6  7  2  0
  7  8  1  0
  8  9  2  0
  9 10  1  0
 10 11  1  0
 10 12  1  0
 10 13  1  0
  9 14  1  0
 14 15  2  0
 15 16  1  0
 16 17  1  0
 17 18  2  0
 17 19  1  0
 19 20  1  0
 19 21  1  0
 21 22  1  0
 22 23  1  0
 23 24  1  0
 24 25  1  0
 25 26  1  0
 26 27  2  0
 26 28  1  0
 25 29  1  0
 29 30  1  0
 16  4  1  0
 30 22  1  0
 15  6  1  0
  1 31  1  0
  5 32  1  0
  7 33  1  0
  8 34  1  0
 14 35  1  0
 19 36  1  6
 20 37  1  0
 21 38  1  0
 21 39  1  0
 23 40  1  0
 23 41  1  0
 24 42  1  0
 24 43  1  0
 25 44  1  0
 29 45  1  0
 29 46  1  0
 30 47  1  0
 30 48  1  0
M  CHG  2   1  -1  28  -1
M  END
>  <UniqueID>  (9) 
9

>  <SMILES>  (9) 
[NH-]C(=O)c1cc2ccc(C(F)(F)F)cc2n1C(=O)[C@@H](O)CN1CCC(C(=O)[O-])CC1

>  <Energy>  (9) 
101.04093998684284

>  <Genealogy>  (9) 
[NH-]C(=O)c1cc2ccc(C(F)(F)F)cc2n1C(=O)[C@@H](O)CN1CCC(C(=O)[O-])CC1 (protonated)
[NH-]C(=O)c1cc2ccc(C(F)(F)F)cc2n1C(=O)[C@@H](O)CN1CCC(C(=O)[O-])CC1 (3D coordinates assigned)
[NH-]C(=O)c1cc2ccc(C(F)(F)F)cc2n1C(=O)[C@@H](O)CN1CCC(C(=O)[O-])CC1 (nonaromatic ring conformer: 101.04093998684284 kcal/mol)

>  <smiles>  (9) 
NC(=O)c1cc2ccc(C(F)(F)F)cc2n1C(=O)[C@@H](O)CN1CCC(C(=O)O)CC1

>  <score_type>  (9) 
oracle

>  <origin>  (9) 
adg

>  <m_score__min__energy>  (9) 
-6.9699999999999998

>  <m_primary>  (9) 
energy

$$$$
9:0
     RDKit          3D

 40 41  0  0  0  0  0  0  0  0999 V2000
  144.7540  154.5510  135.1700 N   0  0  0  0  0  0  0  0  0  0  0  0
  144.7750  154.0820  133.8230 C   0  0  0  0  0  0  0  0  0  0  0  0
  145.5790  154.5980  133.0020 O   0  0  0  0  0  0  0  0  0  0  0  0
  143.8460  153.0130  133.4010 C   0  0  0  0  0  0  0  0  0  0  0  0
  144.2600  151.7590  132.9510 C   0  0  0  0  0  0  0  0  0  0  0  0
  143.1000  151.0620  132.6990 C   0  0  0  0  0  0  0  0  0  0  0  0
  142.9180  149.7690  132.2190 C   0  0  0  0  0  0  0  0  0  0  0  0
  141.6010  149.3160  132.0300 C   0  0  0  0  0  0  0  0  0  0  0  0
  140.4990  150.1660  132.3020 C   0  0  0  0  0  0  0  0  0  0  0  0
  139.0930  149.6630  132.1220 C   0  0  0  0  0  0  0  0  0  0  0  0
  138.9730  148.9100  130.8350 C   0  0  0  0  0  0  0  0  0  0  0  0
  139.0740  147.6540  130.8220 O   0  0  0  0  0  0  0  0  0  0  0  0
  138.7260  149.5920  129.6500 O   0  0  0  0  0  0  0  0  0  0  0  0
  140.7230  151.4710  132.7920 C   0  0  0  0  0  0  0  0  0  0  0  0
  142.0440  151.8860  132.9920 C   0  0  0  0  0  0  0  0  0  0  0  0
  142.4870  153.0840  133.4320 N   0  0  0  0  0  0  0  0  0  0  0  0
  141.6730  154.2200  133.7650 C   0  0  0  0  0  0  0  0  0  0  0  0
  140.7790  154.6030  132.9650 O   0  0  0  0  0  0  0  0  0  0  0  0
  141.8580  154.9300  135.0370 C   0  0  0  0  0  0  0  0  0  0  0  0
  142.4740  156.0310  135.0600 O   0  0  0  0  0  0  0  0  0  0  0  0
  141.3570  154.3720  136.2160 O   0  0  0  0  0  0  0  0  0  0  0  0
  142.0640  154.4180  137.4490 C   0  0  0  0  0  0  0  0  0  0  0  0
  142.7690  153.1130  137.6730 C   0  0  0  0  0  0  0  0  0  0  0  0
  143.9560  152.9820  137.2770 O   0  0  0  0  0  0  0  0  0  0  0  0
  142.1300  152.0090  138.3280 N   0  0  0  0  0  0  0  0  0  0  0  0
  140.6900  151.8430  138.5030 C   0  0  0  0  0  0  0  0  0  0  0  0
  140.1560  150.8170  137.5550 C   0  0  0  0  0  0  0  0  0  0  0  0
  140.6160  150.7360  136.3870 O   0  0  0  0  0  0  0  0  0  0  0  0
  139.1250  149.9740  137.9490 O   0  0  0  0  0  0  0  0  0  0  0  0
  143.8810  154.5040  135.7410 H   0  0  0  0  0  0  0  0  0  0  0  0
  145.2931  151.4031  132.8245 H   0  0  0  0  0  0  0  0  0  0  0  0
  143.7782  149.1212  131.9943 H   0  0  0  0  0  0  0  0  0  0  0  0
  141.4234  148.2926  131.6677 H   0  0  0  0  0  0  0  0  0  0  0  0
  138.8361  148.9961  132.9582 H   0  0  0  0  0  0  0  0  0  0  0  0
  138.4054  150.5213  132.1004 H   0  0  0  0  0  0  0  0  0  0  0  0
  139.8808  152.1439  133.0108 H   0  0  0  0  0  0  0  0  0  0  0  0
  142.8026  155.2326  137.4175 H   0  0  0  0  0  0  0  0  0  0  0  0
  141.3547  154.5961  138.2707 H   0  0  0  0  0  0  0  0  0  0  0  0
  140.4866  151.5213  139.5351 H   0  0  0  0  0  0  0  0  0  0  0  0
  140.1962  152.8043  138.2980 H   0  0  0  0  0  0  0  0  0  0  0  0
  1  2  1  0
  2  3  2  0
  2  4  1  0
  4  5  2  0
  5  6  1  0
  6  7  2  0
  7  8  1  0
  8  9  2  0
  9 10  1  0
 10 11  1  0
 11 12  2  0
 11 13  1  0
  9 14  1  0
 14 15  2  0
 15 16  1  0
 16 17  1  0
 17 18  2  0
 17 19  1  0
 19 20  2  0
 19 21  1  0
 21 22  1  0
 22 23  1  0
 23 24  2  0
 23 25  1  0
 25 26  1  0
 26 27  1  0
 27 28  2  0
 27 29  1  0
 16  4  1  0
 15  6  1  0
  1 30  1  0
  5 31  1  0
  7 32  1  0
  8 33  1  0
 10 34  1  0
 10 35  1  0
 14 36  1  0
 22 37  1  0
 22 38  1  0
 26 39  1  0
 26 40  1  0
M  CHG  4   1  -1  13  -1  25  -1  29  -1
M  END
>  <UniqueID>  (10) 
10

>  <SMILES>  (10) 
[NH-]C(=O)c1cc2ccc(CC(=O)[O-])cc2n1C(=O)C(=O)OCC(=O)[N-]CC(=O)[O-]

>  <Energy>  (10) 
71.32497301757779

>  <Genealogy>  (10) 
[NH-]C(=O)c1cc2ccc(CC(=O)[O-])cc2n1C(=O)C(=O)OCC(=O)[N-]CC(=O)[O-] (protonated)
[NH-]C(=O)c1cc2ccc(CC(=O)[O-])cc2n1C(=O)C(=O)OCC(=O)[N-]CC(=O)[O-] (3D coordinates assigned)
[NH-]C(=O)c1cc2ccc(CC(=O)[O-])cc2n1C(=O)C(=O)OCC(=O)[N-]CC(=O)[O-] (optimized conformer: 71.32497301757779 kcal/mol)

>  <smiles>  (10) 
NC(=O)c1cc2ccc(CC(=O)O)cc2n1C(=O)C(=O)OCC(=O)NCC(=O)O

>  <score_type>  (10) 
oracle

>  <origin>  (10) 
adg

>  <m_score__min__energy>  (10) 
-7.4800000000000004

>  <m_primary>  (10) 
energy

$$$$
10:0
     RDKit          3D

 37 38  0  0  0  0  0  0  0  0999 V2000
  140.4670  159.2770  132.1150 C   0  0  0  0  0  0  0  0  0  0  0  0
  141.1200  158.7950  133.3460 N   0  0  1  0  0  0  0  0  0  0  0  0
  140.2220  157.9480  134.1640 C   0  0  0  0  0  0  0  0  0  0  0  0
  139.9860  158.4850  135.5500 C   0  0  0  0  0  0  0  0  0  0  0  0
  139.2110  157.8850  136.3400 O   0  0  0  0  0  0  0  0  0  0  0  0
  140.6330  159.6400  135.9680 O   0  0  0  0  0  0  0  0  0  0  0  0
  142.3700  158.1180  133.0600 C   0  0  0  0  0  0  0  0  0  0  0  0
  142.5200  157.4860  131.9770 O   0  0  0  0  0  0  0  0  0  0  0  0
  143.4610  158.0850  134.0580 C   0  0  0  0  0  0  0  0  0  0  0  0
  143.2920  157.4940  135.1580 O   0  0  0  0  0  0  0  0  0  0  0  0
  144.7210  158.7130  133.7800 N   0  0  0  0  0  0  0  0  0  0  0  0
  144.9730  160.0440  133.6400 C   0  0  0  0  0  0  0  0  0  0  0  0
  143.9960  161.1320  133.8450 C   0  0  0  0  0  0  0  0  0  0  0  0
  142.6260  160.8220  134.0890 N   0  0  0  0  0  0  0  0  0  0  0  0
  144.3550  162.3390  133.7900 O   0  0  0  0  0  0  0  0  0  0  0  0
  146.3150  160.2540  133.3230 C   0  0  0  0  0  0  0  0  0  0  0  0
  146.8780  158.9980  133.2710 C   0  0  0  0  0  0  0  0  0  0  0  0
  148.1870  158.6120  132.9950 C   0  0  0  0  0  0  0  0  0  0  0  0
  148.4810  157.2380  132.9940 C   0  0  0  0  0  0  0  0  0  0  0  0
  147.4660  156.2770  133.2400 C   0  0  0  0  0  0  0  0  0  0  0  0
  147.8040  154.8090  133.2750 C   0  0  0  0  0  0  0  0  0  0  0  0
  146.8060  154.0630  132.6730 F   0  0  0  0  0  0  0  0  0  0  0  0
  147.9440  154.3690  134.5800 F   0  0  0  0  0  0  0  0  0  0  0  0
  148.9920  154.5990  132.5990 F   0  0  0  0  0  0  0  0  0  0  0  0
  146.1540  156.7120  133.5360 C   0  0  0  0  0  0  0  0  0  0  0  0
  145.8950  158.0860  133.5480 C   0  0  0  0  0  0  0  0  0  0  0  0
  139.6080  159.9110  132.3798 H   0  0  0  0  0  0  0  0  0  0  0  0
  141.1863  159.8624  131.5235 H   0  0  0  0  0  0  0  0  0  0  0  0
  140.1195  158.4171  131.5235 H   0  0  0  0  0  0  0  0  0  0  0  0
  141.3360  159.6500  133.9110 H   0  0  0  0  0  0  0  0  0  0  0  0
  139.2522  157.8720  133.6505 H   0  0  0  0  0  0  0  0  0  0  0  0
  140.7134  156.9702  134.2758 H   0  0  0  0  0  0  0  0  0  0  0  0
  142.3580  160.0190  134.7000 H   0  0  0  0  0  0  0  0  0  0  0  0
  146.8169  161.2176  133.1511 H   0  0  0  0  0  0  0  0  0  0  0  0
  148.9664  159.3591  132.7844 H   0  0  0  0  0  0  0  0  0  0  0  0
  149.5107  156.9030  132.8001 H   0  0  0  0  0  0  0  0  0  0  0  0
  145.3556  155.9867  133.7518 H   0  0  0  0  0  0  0  0  0  0  0  0
  1  2  1  0
  2  3  1  0
  3  4  1  0
  4  5  2  0
  4  6  1  0
  2  7  1  0
  7  8  2  0
  7  9  1  0
  9 10  2  0
  9 11  1  0
 11 12  1  0
 12 13  1  0
 13 14  1  0
 13 15  2  0
 12 16  2  0
 16 17  1  0
 17 18  2  0
 18 19  1  0
 19 20  2  0
 20 21  1  0
 21 22  1  0
 21 23  1  0
 21 24  1  0
 20 25  1  0
 25 26  2  0
 26 11  1  0
 26 17  1  0
  1 27  1  0
  1 28  1  0
  1 29  1  0
  2 30  1  1
  3 31  1  0
  3 32  1  0
 14 33  1  0
 16 34  1  0
 18 35  1  0
 19 36  1  0
 25 37  1  0
M  CHG  3   2   1   6  -1  14  -1
M  END
>  <UniqueID>  (11) 
11

>  <SMILES>  (11) 
C[N@@H+](CC(=O)[O-])C(=O)C(=O)n1c(C([NH-])=O)cc2ccc(C(F)(F)F)cc21

>  <Energy>  (11) 
80.57691801299974

>  <Genealogy>  (11) 
C[NH+](CC(=O)[O-])C(=O)C(=O)n1c(C([NH-])=O)cc2ccc(C(F)(F)F)cc21 (protonated)
C[N@@H+](CC(=O)[O-])C(=O)C(=O)n1c(C([NH-])=O)cc2ccc(C(F)(F)F)cc21 (chirality)
C[N@@H+](CC(=O)[O-])C(=O)C(=O)n1c(C([NH-])=O)cc2ccc(C(F)(F)F)cc21 (3D coordinates assigned)
C[N@@H+](CC(=O)[O-])C(=O)C(=O)n1c(C([NH-])=O)cc2ccc(C(F)(F)F)cc21 (optimized conformer: 80.57691801299974 kcal/mol)

>  <smiles>  (11) 
CN(CC(=O)O)C(=O)C(=O)n1c(C(N)=O)cc2ccc(C(F)(F)F)cc21

>  <score_type>  (11) 
oracle

>  <origin>  (11) 
adg

>  <m_score__min__energy>  (11) 
-5.2699999999999996

>  <m_primary>  (11) 
energy

$$$$
11:0
     RDKit          3D

 57 58  0  0  0  0  0  0  0  0999 V2000
  148.3530  159.8960  132.1120 C   0  0  0  0  0  0  0  0  0  0  0  0
  147.6410  159.3630  133.3520 C   0  0  0  0  0  0  0  0  0  0  0  0
  146.4390  160.0910  133.5970 O   0  0  0  0  0  0  0  0  0  0  0  0
  145.1610  159.5420  133.4520 C   0  0  0  0  0  0  0  0  0  0  0  0
  144.9460  158.6290  132.6070 O   0  0  0  0  0  0  0  0  0  0  0  0
  144.1240  160.0230  134.2540 O   0  0  0  0  0  0  0  0  0  0  0  0
  143.1040  160.8860  133.7590 C   0  0  0  0  0  0  0  0  0  0  0  0
  141.7790  160.1050  133.6670 C   0  0  0  0  0  0  0  0  0  0  0  0
  141.8380  158.7020  134.1610 N   0  0  1  0  0  0  0  0  0  0  0  0
  140.9480  158.4480  135.3080 C   0  0  0  0  0  0  0  0  0  0  0  0
  141.5910  157.7210  133.1170 C   0  0  0  0  0  0  0  0  0  0  0  0
  142.4770  157.4870  132.2490 O   0  0  0  0  0  0  0  0  0  0  0  0
  140.3010  157.0790  132.9830 N   0  0  0  0  0  0  0  0  0  0  0  0
  139.0760  157.8680  132.8150 C   0  0  0  0  0  0  0  0  0  0  0  0
  140.2350  155.6140  133.0040 C   0  0  0  0  0  0  0  0  0  0  0  0
  140.4580  155.1600  134.3330 O   0  0  0  0  0  0  0  0  0  0  0  0
  141.7210  155.0940  134.9230 C   0  0  0  0  0  0  0  0  0  0  0  0
  141.9400  155.6720  136.0240 O   0  0  0  0  0  0  0  0  0  0  0  0
  142.7620  154.3350  134.2850 N   0  0  0  0  0  0  0  0  0  0  0  0
  144.0770  154.6700  134.1380 C   0  0  0  0  0  0  0  0  0  0  0  0
  144.6850  155.9760  134.4660 C   0  0  0  0  0  0  0  0  0  0  0  0
  143.8730  157.1210  134.7110 N   0  0  0  0  0  0  0  0  0  0  0  0
  145.9400  156.0940  134.4730 O   0  0  0  0  0  0  0  0  0  0  0  0
  144.7790  153.6350  133.5250 C   0  0  0  0  0  0  0  0  0  0  0  0
  143.8470  152.6530  133.2840 C   0  0  0  0  0  0  0  0  0  0  0  0
  143.9950  151.4080  132.6780 C   0  0  0  0  0  0  0  0  0  0  0  0
  142.8580  150.5920  132.5640 C   0  0  0  0  0  0  0  0  0  0  0  0
  141.6090  151.0210  133.0720 C   0  0  0  0  0  0  0  0  0  0  0  0
  140.3930  150.1560  132.9170 C   0  0  0  0  0  0  0  0  0  0  0  0
  141.4920  152.2930  133.6710 C   0  0  0  0  0  0  0  0  0  0  0  0
  142.6370  153.0970  133.7530 C   0  0  0  0  0  0  0  0  0  0  0  0
  149.1987  160.5291  132.4185 H   0  0  0  0  0  0  0  0  0  0  0  0
  148.7250  159.0525  131.5118 H   0  0  0  0  0  0  0  0  0  0  0  0
  147.6485  160.4906  131.5118 H   0  0  0  0  0  0  0  0  0  0  0  0
  147.3953  158.3018  133.1988 H   0  0  0  0  0  0  0  0  0  0  0  0
  148.3075  159.4798  134.2193 H   0  0  0  0  0  0  0  0  0  0  0  0
  142.9811  161.7396  134.4418 H   0  0  0  0  0  0  0  0  0  0  0  0
  143.3848  161.2555  132.7617 H   0  0  0  0  0  0  0  0  0  0  0  0
  141.0242  160.6434  134.2590 H   0  0  0  0  0  0  0  0  0  0  0  0
  141.5333  160.0431  132.5966 H   0  0  0  0  0  0  0  0  0  0  0  0
  142.8180  158.5740  134.5040 H   0  0  0  0  0  0  0  0  0  0  0  0
  141.5027  158.6063  136.2446 H   0  0  0  0  0  0  0  0  0  0  0  0
  140.0920  159.1377  135.2677 H   0  0  0  0  0  0  0  0  0  0  0  0
  140.5850  157.4104  135.2677 H   0  0  0  0  0  0  0  0  0  0  0  0
  138.6699  158.1296  133.8033 H   0  0  0  0  0  0  0  0  0  0  0  0
  139.3060  158.7882  132.2579 H   0  0  0  0  0  0  0  0  0  0  0  0
  138.3334  157.2780  132.2579 H   0  0  0  0  0  0  0  0  0  0  0  0
  139.2423  155.2845  132.6633 H   0  0  0  0  0  0  0  0  0  0  0  0
  141.0026  155.1976  132.3351 H   0  0  0  0  0  0  0  0  0  0  0  0
  143.7570  157.8620  133.9850 H   0  0  0  0  0  0  0  0  0  0  0  0
  145.8521  153.6086  133.2845 H   0  0  0  0  0  0  0  0  0  0  0  0
  144.9726  151.0741  132.3002 H   0  0  0  0  0  0  0  0  0  0  0  0
  142.9390  149.6099  132.0751 H   0  0  0  0  0  0  0  0  0  0  0  0
  140.0085  149.8825  133.9107 H   0  0  0  0  0  0  0  0  0  0  0  0
  139.6189  150.7075  132.3634 H   0  0  0  0  0  0  0  0  0  0  0  0
  140.6601  149.2438  132.3634 H   0  0  0  0  0  0  0  0  0  0  0  0
  140.5266  152.6448  134.0637 H   0  0  0  0  0  0  0  0  0  0  0  0
  1  2  1  0
  2  3  1  0
  3  4  1  0
  4  5  2  0
  4  6  1  0
  6  7  1  0
  7  8  1  0
  8  9  1  0
  9 10  1  0
  9 11  1  0
 11 12  2  0
 11 13  1  0
 13 14  1  0
 13 15  1  0
 15 16  1  0
 16 17  1  0
 17 18  2  0
 17 19  1  0
 19 20  1  0
 20 21  1  0
 21 22  1  0
 21 23  2  0
 20 24  2  0
 24 25  1  0
 25 26  2  0
 26 27  1  0
 27 28  2  0
 28 29  1  0
 28 30  1  0
 30 31  2  0
 31 19  1  0
 31 25  1  0
  1 32  1  0
  1 33  1  0
  1 34  1  0
  2 35  1  0
  2 36  1  0
  7 37  1  0
  7 38  1  0
  8 39  1  0
  8 40  1  0
  9 41  1  1
 10 42  1  0
 10 43  1  0
 10 44  1  0
 14 45  1  0
 14 46  1  0
 14 47  1  0
 15 48  1  0
 15 49  1  0
 22 50  1  0
 24 51  1  0
 26 52  1  0
 27 53  1  0
 29 54  1  0
 29 55  1  0
 29 56  1  0
 30 57  1  0
M  CHG  2   9   1  22  -1
M  END
>  <UniqueID>  (12) 
12

>  <SMILES>  (12) 
CCOC(=O)OCC[N@@H+](C)C(=O)N(C)COC(=O)n1c(C([NH-])=O)cc2ccc(C)cc21

>  <Energy>  (12) 
90.96044959520634

>  <Genealogy>  (12) 
CCOC(=O)OCC[NH+](C)C(=O)N(C)COC(=O)n1c(C([NH-])=O)cc2ccc(C)cc21 (protonated)
CCOC(=O)OCC[N@@H+](C)C(=O)N(C)COC(=O)n1c(C([NH-])=O)cc2ccc(C)cc21 (chirality)
CCOC(=O)OCC[N@@H+](C)C(=O)N(C)COC(=O)n1c(C([NH-])=O)cc2ccc(C)cc21 (3D coordinates assigned)
CCOC(=O)OCC[N@@H+](C)C(=O)N(C)COC(=O)n1c(C([NH-])=O)cc2ccc(C)cc21 (optimized conformer: 90.96044959520634 kcal/mol)

>  <smiles>  (12) 
CCOC(=O)OCCN(C)C(=O)N(C)COC(=O)n1c(C(N)=O)cc2ccc(C)cc21

>  <score_type>  (12) 
oracle

>  <origin>  (12) 
adg

>  <m_score__min__energy>  (12) 
-5.9299999999999997

>  <m_primary>  (12) 
energy

$$$$
12:0
     RDKit          3D

 51 52  0  0  0  0  0  0  0  0999 V2000
  139.2540  146.9440  129.9660 C   0  0  0  0  0  0  0  0  0  0  0  0
  138.9840  148.0730  130.8730 N   0  0  0  0  0  0  0  0  0  0  0  0
  138.4090  149.1950  130.1140 C   0  0  0  0  0  0  0  0  0  0  0  0
  140.2140  148.4870  131.5930 C   0  0  0  0  0  0  0  0  0  0  0  0
  139.9330  149.7210  132.4580 C   0  0  0  0  0  0  0  0  0  0  0  0
  141.1790  150.5250  132.7140 C   0  0  0  0  0  0  0  0  0  0  0  0
  142.4500  150.0140  132.3420 C   0  0  0  0  0  0  0  0  0  0  0  0
  143.6160  150.7680  132.5600 C   0  0  0  0  0  0  0  0  0  0  0  0
  143.4810  152.0290  133.1350 C   0  0  0  0  0  0  0  0  0  0  0  0
  144.4330  152.9730  133.4410 C   0  0  0  0  0  0  0  0  0  0  0  0
  143.7280  154.0550  133.9650 C   0  0  0  0  0  0  0  0  0  0  0  0
  144.3680  155.3230  134.3910 C   0  0  0  0  0  0  0  0  0  0  0  0
  143.5900  156.4240  134.8520 N   0  0  0  0  0  0  0  0  0  0  0  0
  145.6210  155.4350  134.3420 O   0  0  0  0  0  0  0  0  0  0  0  0
  142.3910  153.7880  133.9790 N   0  0  0  0  0  0  0  0  0  0  0  0
  141.3280  154.6770  134.3460 C   0  0  0  0  0  0  0  0  0  0  0  0
  141.2710  155.1310  135.5200 O   0  0  0  0  0  0  0  0  0  0  0  0
  140.3380  155.1050  133.3490 C   0  0  0  0  0  0  0  0  0  0  0  0
  139.6150  154.2490  132.7680 O   0  0  0  0  0  0  0  0  0  0  0  0
  140.2310  156.4910  133.0070 N   0  0  0  0  0  0  0  0  0  0  0  0
  139.2520  157.3930  133.6040 C   0  0  0  0  0  0  0  0  0  0  0  0
  139.6820  157.8430  134.9710 C   0  0  0  0  0  0  0  0  0  0  0  0
  138.8110  158.2290  135.7960 O   0  0  0  0  0  0  0  0  0  0  0  0
  141.0370  157.8640  135.3140 O   0  0  0  0  0  0  0  0  0  0  0  0
  141.8420  159.0340  135.2350 C   0  0  0  0  0  0  0  0  0  0  0  0
  142.1790  159.3270  133.7770 C   0  0  0  0  0  0  0  0  0  0  0  0
  142.4400  158.1370  133.0820 O   0  0  0  0  0  0  0  0  0  0  0  0
  142.2580  152.5430  133.4760 C   0  0  0  0  0  0  0  0  0  0  0  0
  141.0840  151.8070  133.2990 C   0  0  0  0  0  0  0  0  0  0  0  0
  139.4697  146.0420  130.5575 H   0  0  0  0  0  0  0  0  0  0  0  0
  138.3734  146.7646  129.3316 H   0  0  0  0  0  0  0  0  0  0  0  0
  140.1205  147.1824  129.3316 H   0  0  0  0  0  0  0  0  0  0  0  0
  138.0218  149.9506  130.8134 H   0  0  0  0  0  0  0  0  0  0  0  0
  139.1870  149.6462  129.4806 H   0  0  0  0  0  0  0  0  0  0  0  0
  137.5884  148.8269  129.4806 H   0  0  0  0  0  0  0  0  0  0  0  0
  140.5530  147.6619  132.2367 H   0  0  0  0  0  0  0  0  0  0  0  0
  140.9934  148.7350  130.8574 H   0  0  0  0  0  0  0  0  0  0  0  0
  139.1995  150.3574  131.9413 H   0  0  0  0  0  0  0  0  0  0  0  0
  139.5462  149.3753  133.4280 H   0  0  0  0  0  0  0  0  0  0  0  0
  142.5231  149.0189  131.8789 H   0  0  0  0  0  0  0  0  0  0  0  0
  144.6053  150.3738  132.2847 H   0  0  0  0  0  0  0  0  0  0  0  0
  145.5211  152.8914  133.3016 H   0  0  0  0  0  0  0  0  0  0  0  0
  142.5940  156.5410  134.5620 H   0  0  0  0  0  0  0  0  0  0  0  0
  139.1369  158.2750  132.9568 H   0  0  0  0  0  0  0  0  0  0  0  0
  138.2987  156.8529  133.7018 H   0  0  0  0  0  0  0  0  0  0  0  0
  141.2922  159.8858  135.6618 H   0  0  0  0  0  0  0  0  0  0  0  0
  142.7725  158.8754  135.7997 H   0  0  0  0  0  0  0  0  0  0  0  0
  141.3287  159.8418  133.3058 H   0  0  0  0  0  0  0  0  0  0  0  0
  143.0760  159.9627  133.7411 H   0  0  0  0  0  0  0  0  0  0  0  0
  142.0780  157.4000  133.6390 H   0  0  0  0  0  0  0  0  0  0  0  0
  140.1103  152.2155  133.6074 H   0  0  0  0  0  0  0  0  0  0  0  0
  1  2  1  0
  2  3  1  0
  2  4  1  0
  4  5  1  0
  5  6  1  0
  6  7  2  0
  7  8  1  0
  8  9  2  0
  9 10  1  0
 10 11  2  0
 11 12  1  0
 12 13  1  0
 12 14  2  0
 11 15  1  0
 15 16  1  0
 16 17  2  0
 16 18  1  0
 18 19  2  0
 18 20  1  0
 20 21  1  0
 21 22  1  0
 22 23  2  0
 22 24  1  0
 24 25  1  0
 25 26  1  0
 26 27  1  0
 15 28  1  0
 28 29  2  0
 29  6  1  0
 28  9  1  0
  1 30  1  0
  1 31  1  0
  1 32  1  0
  3 33  1  0
  3 34  1  0
  3 35  1  0
  4 36  1  0
  4 37  1  0
  5 38  1  0
  5 39  1  0
  7 40  1  0
  8 41  1  0
 10 42  1  0
 13 43  1  0
 21 44  1  0
 21 45  1  0
 25 46  1  0
 25 47  1  0
 26 48  1  0
 26 49  1  0
 27 50  1  0
 29 51  1  0
M  CHG  2  13  -1  20  -1
M  END
>  <UniqueID>  (13) 
13

>  <SMILES>  (13) 
CN(C)CCc1ccc2cc(C([NH-])=O)n(C(=O)C(=O)[N-]CC(=O)OCCO)c2c1

>  <Energy>  (13) 
82.33127545066289

>  <Genealogy>  (13) 
CN(C)CCc1ccc2cc(C([NH-])=O)n(C(=O)C(=O)[N-]CC(=O)OCCO)c2c1 (protonated)
CN(C)CCc1ccc2cc(C([NH-])=O)n(C(=O)C(=O)[N-]CC(=O)OCCO)c2c1 (3D coordinates assigned)
CN(C)CCc1ccc2cc(C([NH-])=O)n(C(=O)C(=O)[N-]CC(=O)OCCO)c2c1 (optimized conformer: 82.33127545066289 kcal/mol)

>  <smiles>  (13) 
CN(C)CCc1ccc2cc(C(N)=O)n(C(=O)C(=O)NCC(=O)OCCO)c2c1

>  <score_type>  (13) 
oracle

>  <origin>  (13) 
adg

>  <m_score__min__energy>  (13) 
-6.1799999999999997

>  <m_primary>  (13) 
energy

$$$$
13:0
     RDKit          3D

 51 53  0  0  0  0  0  0  0  0999 V2000
  142.1020  154.1630  135.1000 C   0  0  0  0  0  0  0  0  0  0  0  0
  142.9940  155.1760  135.8500 C   0  0  1  0  0  0  0  0  0  0  0  0
  143.6370  154.5070  136.9110 O   0  0  0  0  0  0  0  0  0  0  0  0
  144.0340  155.7860  134.8650 C   0  0  0  0  0  0  0  0  0  0  0  0
  143.4780  156.1440  133.4700 C   0  0  0  0  0  0  0  0  0  0  0  0
  143.5060  157.6190  133.1620 C   0  0  0  0  0  0  0  0  0  0  0  0
  142.4520  158.1710  132.7440 O   0  0  0  0  0  0  0  0  0  0  0  0
  144.7170  158.3960  133.2980 N   0  0  0  0  0  0  0  0  0  0  0  0
  144.8350  159.7430  133.4900 C   0  0  0  0  0  0  0  0  0  0  0  0
  143.7410  160.6620  133.8650 C   0  0  0  0  0  0  0  0  0  0  0  0
  142.5360  160.1570  134.4430 N   0  0  0  0  0  0  0  0  0  0  0  0
  143.8450  161.8960  133.6350 O   0  0  0  0  0  0  0  0  0  0  0  0
  146.1730  160.1280  133.4830 C   0  0  0  0  0  0  0  0  0  0  0  0
  146.8840  158.9650  133.3170 C   0  0  0  0  0  0  0  0  0  0  0  0
  148.2590  158.7620  133.2850 C   0  0  0  0  0  0  0  0  0  0  0  0
  148.7280  157.4460  133.1580 C   0  0  0  0  0  0  0  0  0  0  0  0
  147.8230  156.3570  133.0870 C   0  0  0  0  0  0  0  0  0  0  0  0
  148.3480  154.9480  132.9710 C   0  0  0  0  0  0  0  0  0  0  0  0
  148.4850  154.3760  134.2240 F   0  0  0  0  0  0  0  0  0  0  0  0
  149.5830  154.9670  132.3510 F   0  0  0  0  0  0  0  0  0  0  0  0
  147.4820  154.1610  132.2330 F   0  0  0  0  0  0  0  0  0  0  0  0
  146.4290  156.6090  133.0800 C   0  0  0  0  0  0  0  0  0  0  0  0
  145.9880  157.9320  133.2180 C   0  0  0  0  0  0  0  0  0  0  0  0
  142.1210  156.2700  136.4230 C   0  0  0  0  0  0  0  0  0  0  0  0
  141.7910  156.2380  137.6390 O   0  0  0  0  0  0  0  0  0  0  0  0
  141.6910  157.3500  135.5870 N   0  0  0  0  0  0  0  0  0  0  0  0
  140.2110  158.2260  135.7960 S   0  0  0  0  0  0  0  0  0  0  0  0
  139.5760  157.8240  137.0950 O   0  0  0  0  0  0  0  0  0  0  0  0
  140.5340  159.6940  135.8460 O   0  0  0  0  0  0  0  0  0  0  0  0
  139.0760  157.8870  134.4460 C   0  0  0  0  0  0  0  0  0  0  0  0
  139.6220  156.9370  133.3950 C   0  0  0  0  0  0  0  0  0  0  0  0
  139.4920  158.4210  133.0860 C   0  0  0  0  0  0  0  0  0  0  0  0
  141.5573  153.5444  135.8285 H   0  0  0  0  0  0  0  0  0  0  0  0
  141.3826  154.7050  134.4686 H   0  0  0  0  0  0  0  0  0  0  0  0
  142.7307  153.5179  134.4686 H   0  0  0  0  0  0  0  0  0  0  0  0
  143.6470  155.1170  137.6950 H   0  0  0  0  0  0  0  0  0  0  0  0
  144.4359  156.7042  135.3183 H   0  0  0  0  0  0  0  0  0  0  0  0
  144.7964  155.0098  134.7027 H   0  0  0  0  0  0  0  0  0  0  0  0
  144.0797  155.6204  132.7125 H   0  0  0  0  0  0  0  0  0  0  0  0
  142.4223  155.8351  133.4579 H   0  0  0  0  0  0  0  0  0  0  0  0
  141.7510  160.8080  134.6720 H   0  0  0  0  0  0  0  0  0  0  0  0
  142.4320  159.1450  134.6760 H   0  0  0  0  0  0  0  0  0  0  0  0
  146.5748  161.1466  133.5880 H   0  0  0  0  0  0  0  0  0  0  0  0
  148.9583  159.6080  133.3571 H   0  0  0  0  0  0  0  0  0  0  0  0
  149.8107  157.2568  133.1130 H   0  0  0  0  0  0  0  0  0  0  0  0
  145.7090  155.7848  132.9688 H   0  0  0  0  0  0  0  0  0  0  0  0
  138.1596  157.9489  135.0513 H   0  0  0  0  0  0  0  0  0  0  0  0
  140.6175  156.4871  133.5241 H   0  0  0  0  0  0  0  0  0  0  0  0
  139.2643  156.0099  132.9233 H   0  0  0  0  0  0  0  0  0  0  0  0
  140.3934  159.0445  132.9919 H   0  0  0  0  0  0  0  0  0  0  0  0
  139.0014  159.0120  132.2986 H   0  0  0  0  0  0  0  0  0  0  0  0
  1  2  1  0
  2  3  1  1
  2  4  1  0
  4  5  1  0
  5  6  1  0
  6  7  2  0
  6  8  1  0
  8  9  1  0
  9 10  1  0
 10 11  1  0
 10 12  2  0
  9 13  2  0
 13 14  1  0
 14 15  2  0
 15 16  1  0
 16 17  2  0
 17 18  1  0
 18 19  1  0
 18 20  1  0
 18 21  1  0
 17 22  1  0
 22 23  2  0
  2 24  1  0
 24 25  2  0
 24 26  1  0
 26 27  1  0
 27 28  2  0
 27 29  2  0
 27 30  1  0
 30 31  1  0
 31 32  1  0
 23  8  1  0
 32 30  1  0
 23 14  1  0
  1 33  1  0
  1 34  1  0
  1 35  1  0
  3 36  1  0
  4 37  1  0
  4 38  1  0
  5 39  1  0
  5 40  1  0
 11 41  1  0
 11 42  1  0
 13 43  1  0
 15 44  1  0
 16 45  1  0
 22 46  1  0
 30 47  1  0
 31 48  1  0
 31 49  1  0
 32 50  1  0
 32 51  1  0
M  CHG  1  26  -1
M  END
>  <UniqueID>  (14) 
14

>  <SMILES>  (14) 
C[C@@](O)(CCC(=O)n1c(C(N)=O)cc2ccc(C(F)(F)F)cc21)C(=O)[N-]S(=O)(=O)C1CC1

>  <Energy>  (14) 
352.2193852514174

>  <Genealogy>  (14) 
C[C@@](O)(CCC(=O)n1c(C(N)=O)cc2ccc(C(F)(F)F)cc21)C(=O)[N-]S(=O)(=O)C1CC1 (protonated)
C[C@@](O)(CCC(=O)n1c(C(N)=O)cc2ccc(C(F)(F)F)cc21)C(=O)[N-]S(=O)(=O)C1CC1 (3D coordinates assigned)
C[C@@](O)(CCC(=O)n1c(C(N)=O)cc2ccc(C(F)(F)F)cc21)C(=O)[N-]S(=O)(=O)C1CC1 (nonaromatic ring conformer: 352.2193852514174 kcal/mol)

>  <smiles>  (14) 
C[C@@](O)(CCC(=O)n1c(C(N)=O)cc2ccc(C(F)(F)F)cc21)C(=O)NS(=O)(=O)C1CC1

>  <score_type>  (14) 
oracle

>  <origin>  (14) 
adg

>  <m_score__min__energy>  (14) 
-8.9499999999999993

>  <m_primary>  (14) 
energy

$$$$
14:0
     RDKit          3D

 43 46  0  0  0  0  0  0  0  0999 V2000
  141.0050  148.3660  132.2560 C   0  0  0  0  0  0  0  0  0  0  0  0
  140.1180  149.5970  132.0620 C   0  0  0  0  0  0  0  0  0  0  0  0
  140.2840  150.7000  132.9490 O   0  0  0  0  0  0  0  0  0  0  0  0
  141.4190  151.5190  133.0020 C   0  0  0  0  0  0  0  0  0  0  0  0
  142.7250  151.0110  132.8760 C   0  0  0  0  0  0  0  0  0  0  0  0
  143.8230  151.8750  132.9080 C   0  0  0  0  0  0  0  0  0  0  0  0
  143.6420  153.2570  133.0800 C   0  0  0  0  0  0  0  0  0  0  0  0
  144.8080  154.1730  133.0930 C   0  0  0  0  0  0  0  0  0  0  0  0
  146.1260  153.6540  132.9880 C   0  0  0  0  0  0  0  0  0  0  0  0
  147.2370  154.5120  132.9770 C   0  0  0  0  0  0  0  0  0  0  0  0
  147.0060  155.8800  133.0830 C   0  0  0  0  0  0  0  0  0  0  0  0
  147.8970  156.9260  133.0830 C   0  0  0  0  0  0  0  0  0  0  0  0
  147.1170  158.0700  133.2250 C   0  0  0  0  0  0  0  0  0  0  0  0
  147.6830  159.4260  133.3710 C   0  0  0  0  0  0  0  0  0  0  0  0
  147.0740  160.5560  132.7440 N   0  0  0  0  0  0  0  0  0  0  0  0
  148.6820  159.6000  134.1200 O   0  0  0  0  0  0  0  0  0  0  0  0
  145.7920  157.7480  133.2920 N   0  0  0  0  0  0  0  0  0  0  0  0
  144.6670  158.6430  133.3180 C   0  0  0  0  0  0  0  0  0  0  0  0
  144.6810  159.6930  132.6260 O   0  0  0  0  0  0  0  0  0  0  0  0
  143.2820  158.3170  134.3460 Cl  0  0  0  0  0  0  0  0  0  0  0  0
  145.7440  156.3990  133.2110 C   0  0  0  0  0  0  0  0  0  0  0  0
  144.6190  155.5690  133.2040 C   0  0  0  0  0  0  0  0  0  0  0  0
  142.3380  153.7560  133.2340 C   0  0  0  0  0  0  0  0  0  0  0  0
  141.2380  152.8950  133.1940 C   0  0  0  0  0  0  0  0  0  0  0  0
  138.7220  149.4200  131.4940 C   0  0  0  0  0  0  0  0  0  0  0  0
  139.8310  150.0160  130.6290 C   0  0  0  0  0  0  0  0  0  0  0  0
  141.1407  148.1776  133.3312 H   0  0  0  0  0  0  0  0  0  0  0  0
  140.5274  147.4925  131.7881 H   0  0  0  0  0  0  0  0  0  0  0  0
  141.9848  148.5426  131.7881 H   0  0  0  0  0  0  0  0  0  0  0  0
  142.8825  149.9294  132.7518 H   0  0  0  0  0  0  0  0  0  0  0  0
  144.8391  151.4685  132.7974 H   0  0  0  0  0  0  0  0  0  0  0  0
  146.2779  152.5670  132.9145 H   0  0  0  0  0  0  0  0  0  0  0  0
  148.2589  154.1150  132.8873 H   0  0  0  0  0  0  0  0  0  0  0  0
  148.9917  156.8711  132.9906 H   0  0  0  0  0  0  0  0  0  0  0  0
  146.1700  160.4680  132.2260 H   0  0  0  0  0  0  0  0  0  0  0  0
  147.4980  161.5030  132.8500 H   0  0  0  0  0  0  0  0  0  0  0  0
  143.6075  155.9939  133.2833 H   0  0  0  0  0  0  0  0  0  0  0  0
  142.1813  154.8339  133.3874 H   0  0  0  0  0  0  0  0  0  0  0  0
  140.2226  153.3006  133.3141 H   0  0  0  0  0  0  0  0  0  0  0  0
  138.3389  148.4114  131.2797 H   0  0  0  0  0  0  0  0  0  0  0  0
  137.7131  149.7388  131.7948 H   0  0  0  0  0  0  0  0  0  0  0  0
  140.2479  149.4369  129.7918 H   0  0  0  0  0  0  0  0  0  0  0  0
  139.9539  150.9420  130.0482 H   0  0  0  0  0  0  0  0  0  0  0  0
  1  2  1  0
  2  3  1  0
  3  4  1  0
  4  5  2  0
  5  6  1  0
  6  7  2  0
  7  8  1  0
  8  9  2  0
  9 10  1  0
 10 11  2  0
 11 12  1  0
 12 13  2  0
 13 14  1  0
 14 15  1  0
 14 16  2  0
 13 17  1  0
 17 18  1  0
 18 19  2  0
 18 20  1  0
 17 21  1  0
 21 22  2  0
  7 23  1  0
 23 24  2  0
  2 25  1  0
 25 26  1  0
 26  2  1  0
 24  4  1  0
 22  8  1  0
 21 11  1  0
  1 27  1  0
  1 28  1  0
  1 29  1  0
  5 30  1  0
  6 31  1  0
  9 32  1  0
 10 33  1  0
 12 34  1  0
 15 35  1  0
 15 36  1  0
 22 37  1  0
 23 38  1  0
 24 39  1  0
 25 40  1  0
 25 41  1  0
 26 42  1  0
 26 43  1  0
M  END
>  <UniqueID>  (15) 
15

>  <SMILES>  (15) 
CC1(Oc2ccc(-c3ccc4cc(C(N)=O)n(C(=O)Cl)c4c3)cc2)CC1

>  <Energy>  (15) 
359.5800550347912

>  <Genealogy>  (15) 
CC1(Oc2ccc(-c3ccc4cc(C(N)=O)n(C(=O)Cl)c4c3)cc2)CC1 (3D coordinates assigned)
CC1(Oc2ccc(-c3ccc4cc(C(N)=O)n(C(=O)Cl)c4c3)cc2)CC1 (nonaromatic ring conformer: 359.5800550347912 kcal/mol)

>  <smiles>  (15) 
CC1(Oc2ccc(-c3ccc4cc(C(N)=O)n(C(=O)Cl)c4c3)cc2)CC1

>  <score_type>  (15) 
oracle

>  <origin>  (15) 
adg

>  <m_score__min__energy>  (15) 
-8.9499999999999993

>  <m_primary>  (15) 
energy

$$$$
15:0
     RDKit          3D

 44 45  0  0  0  0  0  0  0  0999 V2000
  141.7890  158.2190  138.7840 C   0  0  0  0  0  0  0  0  0  0  0  0
  141.0600  158.6560  137.5190 C   0  0  0  0  0  0  0  0  0  0  0  0
  141.2840  157.7220  136.4650 O   0  0  0  0  0  0  0  0  0  0  0  0
  140.5220  157.6830  135.2900 C   0  0  0  0  0  0  0  0  0  0  0  0
  139.3220  158.0750  135.3040 O   0  0  0  0  0  0  0  0  0  0  0  0
  141.1090  157.2010  134.0670 N   0  0  0  0  0  0  0  0  0  0  0  0
  140.2800  156.9990  132.9080 C   0  0  0  0  0  0  0  0  0  0  0  0
  139.8630  155.8420  132.6220 O   0  0  0  0  0  0  0  0  0  0  0  0
  139.9510  158.0840  132.0900 O   0  0  0  0  0  0  0  0  0  0  0  0
  138.6720  158.2360  131.4870 C   0  0  0  0  0  0  0  0  0  0  0  0
  138.4930  159.6540  131.0650 C   0  0  0  0  0  0  0  0  0  0  0  0
  139.4840  160.3270  130.6780 O   0  0  0  0  0  0  0  0  0  0  0  0
  137.2280  160.2270  131.0620 O   0  0  0  0  0  0  0  0  0  0  0  0
  142.5230  156.9240  134.0000 C   0  0  0  0  0  0  0  0  0  0  0  0
  142.9340  155.7340  134.0720 O   0  0  0  0  0  0  0  0  0  0  0  0
  143.4760  157.9910  133.8530 N   0  0  0  0  0  0  0  0  0  0  0  0
  143.2150  159.3180  133.6890 C   0  0  0  0  0  0  0  0  0  0  0  0
  141.8850  159.9540  133.7790 C   0  0  0  0  0  0  0  0  0  0  0  0
  141.0720  160.1450  132.6200 N   0  0  0  0  0  0  0  0  0  0  0  0
  141.4380  160.2940  134.9070 O   0  0  0  0  0  0  0  0  0  0  0  0
  144.3910  160.0230  133.4420 C   0  0  0  0  0  0  0  0  0  0  0  0
  145.3920  159.0790  133.4670 C   0  0  0  0  0  0  0  0  0  0  0  0
  146.7610  159.2200  133.2580 C   0  0  0  0  0  0  0  0  0  0  0  0
  147.5570  158.0620  133.2970 C   0  0  0  0  0  0  0  0  0  0  0  0
  146.9730  156.7950  133.5410 C   0  0  0  0  0  0  0  0  0  0  0  0
  147.8190  155.5570  133.5350 C   0  0  0  0  0  0  0  0  0  0  0  0
  145.5780  156.6870  133.7270 C   0  0  0  0  0  0  0  0  0  0  0  0
  144.8130  157.8600  133.7110 C   0  0  0  0  0  0  0  0  0  0  0  0
  141.2261  158.5565  139.6667 H   0  0  0  0  0  0  0  0  0  0  0  0
  141.8718  157.1222  138.7992 H   0  0  0  0  0  0  0  0  0  0  0  0
  142.7953  158.6629  138.7992 H   0  0  0  0  0  0  0  0  0  0  0  0
  139.9813  158.7167  137.7256 H   0  0  0  0  0  0  0  0  0  0  0  0
  141.4430  159.6397  137.2097 H   0  0  0  0  0  0  0  0  0  0  0  0
  138.5996  157.5788  130.6078 H   0  0  0  0  0  0  0  0  0  0  0  0
  137.8887  157.9645  132.2100 H   0  0  0  0  0  0  0  0  0  0  0  0
  140.1610  160.6480  132.6970 H   0  0  0  0  0  0  0  0  0  0  0  0
  141.3250  159.7110  131.7040 H   0  0  0  0  0  0  0  0  0  0  0  0
  144.4968  161.1035  133.2648 H   0  0  0  0  0  0  0  0  0  0  0  0
  147.2065  160.2077  133.0681 H   0  0  0  0  0  0  0  0  0  0  0  0
  148.6424  158.1406  133.1367 H   0  0  0  0  0  0  0  0  0  0  0  0
  148.0282  155.2509  134.5706 H   0  0  0  0  0  0  0  0  0  0  0  0
  147.2832  154.7492  133.0150 H   0  0  0  0  0  0  0  0  0  0  0  0
  148.7662  155.7627  133.0150 H   0  0  0  0  0  0  0  0  0  0  0  0
  145.1038  155.7064  133.8806 H   0  0  0  0  0  0  0  0  0  0  0  0
  1  2  1  0
  2  3  1  0
  3  4  1  0
  4  5  2  0
  4  6  1  0
  6  7  1  0
  7  8  2  0
  7  9  1  0
  9 10  1  0
 10 11  1  0
 11 12  2  0
 11 13  1  0
  6 14  1  0
 14 15  2  0
 14 16  1  0
 16 17  1  0
 17 18  1  0
 18 19  1  0
 18 20  2  0
 17 21  2  0
 21 22  1  0
 22 23  2  0
 23 24  1  0
 24 25  2  0
 25 26  1  0
 25 27  1  0
 27 28  2  0
 28 16  1  0
 28 22  1  0
  1 29  1  0
  1 30  1  0
  1 31  1  0
  2 32  1  0
  2 33  1  0
 10 34  1  0
 10 35  1  0
 19 36  1  0
 19 37  1  0
 21 38  1  0
 23 39  1  0
 24 40  1  0
 26 41  1  0
 26 42  1  0
 26 43  1  0
 27 44  1  0
M  CHG  1  13  -1
M  END
>  <UniqueID>  (16) 
16

>  <SMILES>  (16) 
CCOC(=O)N(C(=O)OCC(=O)[O-])C(=O)n1c(C(N)=O)cc2ccc(C)cc21

>  <Energy>  (16) 
78.94712091372709

>  <Genealogy>  (16) 
CCOC(=O)N(C(=O)OCC(=O)[O-])C(=O)n1c(C(N)=O)cc2ccc(C)cc21 (protonated)
CCOC(=O)N(C(=O)OCC(=O)[O-])C(=O)n1c(C(N)=O)cc2ccc(C)cc21 (3D coordinates assigned)
CCOC(=O)N(C(=O)OCC(=O)[O-])C(=O)n1c(C(N)=O)cc2ccc(C)cc21 (optimized conformer: 78.94712091372709 kcal/mol)

>  <smiles>  (16) 
CCOC(=O)N(C(=O)OCC(=O)O)C(=O)n1c(C(N)=O)cc2ccc(C)cc21

>  <score_type>  (16) 
oracle

>  <origin>  (16) 
adg

>  <m_score__min__energy>  (16) 
-6.5599999999999996

>  <m_primary>  (16) 
energy

$$$$
16:0
     RDKit          3D

 44 45  0  0  0  0  0  0  0  0999 V2000
  137.2180  160.1020  130.6910 C   0  0  0  0  0  0  0  0  0  0  0  0
  138.5290  160.3810  131.1670 O   0  0  0  0  0  0  0  0  0  0  0  0
  139.3510  159.4020  131.7330 C   0  0  0  0  0  0  0  0  0  0  0  0
  140.5770  159.3440  131.4410 O   0  0  0  0  0  0  0  0  0  0  0  0
  138.7720  158.4330  132.7160 C   0  0  0  0  0  0  0  0  0  0  0  0
  139.6450  158.2910  133.9770 C   0  0  0  0  0  0  0  0  0  0  0  0
  141.0100  157.8090  133.7060 N   0  0  0  0  0  0  0  0  0  0  0  0
  141.7420  157.4610  134.9300 C   0  0  0  0  0  0  0  0  0  0  0  0
  143.1230  156.9140  134.5630 C   0  0  0  0  0  0  0  0  0  0  0  0
  143.6790  157.6060  133.3540 C   0  0  0  0  0  0  0  0  0  0  0  0
  143.1290  157.4210  132.2340 O   0  0  0  0  0  0  0  0  0  0  0  0
  144.8670  158.4120  133.4350 N   0  0  0  0  0  0  0  0  0  0  0  0
  144.9560  159.7670  133.5470 C   0  0  0  0  0  0  0  0  0  0  0  0
  143.8210  160.6920  133.6300 C   0  0  0  0  0  0  0  0  0  0  0  0
  142.5010  160.2380  133.3490 N   0  0  0  0  0  0  0  0  0  0  0  0
  144.0080  161.8770  134.0130 O   0  0  0  0  0  0  0  0  0  0  0  0
  146.2770  160.1880  133.4280 C   0  0  0  0  0  0  0  0  0  0  0  0
  147.0080  159.0350  133.2470 C   0  0  0  0  0  0  0  0  0  0  0  0
  148.3780  158.8600  133.0700 C   0  0  0  0  0  0  0  0  0  0  0  0
  148.8550  157.5500  132.8870 C   0  0  0  0  0  0  0  0  0  0  0  0
  147.9600  156.4510  132.8770 C   0  0  0  0  0  0  0  0  0  0  0  0
  148.4890  155.0560  132.7230 C   0  0  0  0  0  0  0  0  0  0  0  0
  146.5790  156.6660  133.0750 C   0  0  0  0  0  0  0  0  0  0  0  0
  146.1320  157.9800  133.2470 C   0  0  0  0  0  0  0  0  0  0  0  0
  136.5406  159.9578  131.5456 H   0  0  0  0  0  0  0  0  0  0  0  0
  136.8628  160.9447  130.0796 H   0  0  0  0  0  0  0  0  0  0  0  0
  137.2367  159.1877  130.0796 H   0  0  0  0  0  0  0  0  0  0  0  0
  137.7735  158.7852  133.0143 H   0  0  0  0  0  0  0  0  0  0  0  0
  138.7204  157.4482  132.2287 H   0  0  0  0  0  0  0  0  0  0  0  0
  139.7153  159.2756  134.4624 H   0  0  0  0  0  0  0  0  0  0  0  0
  139.1616  157.5384  134.6172 H   0  0  0  0  0  0  0  0  0  0  0  0
  141.5470  158.5360  133.1780 H   0  0  0  0  0  0  0  0  0  0  0  0
  141.8579  158.3586  135.5552 H   0  0  0  0  0  0  0  0  0  0  0  0
  141.1814  156.6953  135.4862 H   0  0  0  0  0  0  0  0  0  0  0  0
  143.8067  157.0688  135.4107 H   0  0  0  0  0  0  0  0  0  0  0  0
  143.0229  155.8426  134.3348 H   0  0  0  0  0  0  0  0  0  0  0  0
  142.3370  159.4170  132.7250 H   0  0  0  0  0  0  0  0  0  0  0  0
  146.6559  161.2199  133.4696 H   0  0  0  0  0  0  0  0  0  0  0  0
  149.0651  159.7190  133.0733 H   0  0  0  0  0  0  0  0  0  0  0  0
  149.9326  157.3765  132.7503 H   0  0  0  0  0  0  0  0  0  0  0  0
  148.6561  154.6154  133.7170 H   0  0  0  0  0  0  0  0  0  0  0  0
  147.7597  154.4463  132.1696 H   0  0  0  0  0  0  0  0  0  0  0  0
  149.4392  155.0832  132.1696 H   0  0  0  0  0  0  0  0  0  0  0  0
  145.8732  155.8225  133.0935 H   0  0  0  0  0  0  0  0  0  0  0  0
  1  2  1  0
  2  3  1  0
  3  4  2  0
  3  5  1  0
  5  6  1  0
  6  7  1  0
  7  8  1  0
  8  9  1  0
  9 10  1  0
 10 11  2  0
 10 12  1  0
 12 13  1  0
 13 14  1  0
 14 15  1  0
 14 16  2  0
 13 17  2  0
 17 18  1  0
 18 19  2  0
 19 20  1  0
 20 21  2  0
 21 22  1  0
 21 23  1  0
 23 24  2  0
 24 12  1  0
 24 18  1  0
  1 25  1  0
  1 26  1  0
  1 27  1  0
  5 28  1  0
  5 29  1  0
  6 30  1  0
  6 31  1  0
  7 32  1  0
  8 33  1  0
  8 34  1  0
  9 35  1  0
  9 36  1  0
 15 37  1  0
 17 38  1  0
 19 39  1  0
 20 40  1  0
 22 41  1  0
 22 42  1  0
 22 43  1  0
 23 44  1  0
M  CHG  1  15  -1
M  END
>  <UniqueID>  (17) 
17

>  <SMILES>  (17) 
COC(=O)CCNCCC(=O)n1c(C([NH-])=O)cc2ccc(C)cc21

>  <Energy>  (17) 
81.43311323198199

>  <Genealogy>  (17) 
COC(=O)CCNCCC(=O)n1c(C([NH-])=O)cc2ccc(C)cc21 (protonated)
COC(=O)CCNCCC(=O)n1c(C([NH-])=O)cc2ccc(C)cc21 (3D coordinates assigned)
COC(=O)CCNCCC(=O)n1c(C([NH-])=O)cc2ccc(C)cc21 (optimized conformer: 81.43311323198199 kcal/mol)

>  <smiles>  (17) 
COC(=O)CCNCCC(=O)n1c(C(N)=O)cc2ccc(C)cc21

>  <score_type>  (17) 
oracle

>  <origin>  (17) 
adg

>  <m_score__min__energy>  (17) 
-6.2000000000000002

>  <m_primary>  (17) 
energy

$$$$
17:0
     RDKit          3D

 48 49  0  0  0  0  0  0  0  0999 V2000
  141.1710  159.3550  136.3010 C   0  0  0  0  0  0  0  0  0  0  0  0
  141.6310  158.7520  134.9600 C   0  0  0  0  0  0  0  0  0  0  0  0
  140.9110  159.4350  133.7810 C   0  0  0  0  0  0  0  0  0  0  0  0
  141.2930  157.2540  134.9470 C   0  0  0  0  0  0  0  0  0  0  0  0
  143.0550  158.8670  134.8190 O   0  0  0  0  0  0  0  0  0  0  0  0
  143.8010  158.5920  133.6640 C   0  0  0  0  0  0  0  0  0  0  0  0
  143.2920  157.9610  132.6990 O   0  0  0  0  0  0  0  0  0  0  0  0
  145.1550  159.0610  133.5720 N   0  0  0  0  0  0  0  0  0  0  0  0
  145.5980  160.3460  133.6630 C   0  0  0  0  0  0  0  0  0  0  0  0
  144.7910  161.5160  134.0650 C   0  0  0  0  0  0  0  0  0  0  0  0
  143.4080  161.6010  133.7310 N   0  0  0  0  0  0  0  0  0  0  0  0
  145.3160  162.4290  134.7550 O   0  0  0  0  0  0  0  0  0  0  0  0
  146.9630  160.4120  133.3910 C   0  0  0  0  0  0  0  0  0  0  0  0
  147.3470  159.1160  133.1330 C   0  0  0  0  0  0  0  0  0  0  0  0
  148.5930  158.6040  132.7840 C   0  0  0  0  0  0  0  0  0  0  0  0
  148.6910  157.2260  132.5300 C   0  0  0  0  0  0  0  0  0  0  0  0
  147.5470  156.3890  132.6100 C   0  0  0  0  0  0  0  0  0  0  0  0
  147.6550  154.9730  132.3320 N   0  0  0  0  0  0  0  0  0  0  0  0
  148.3010  154.1900  133.4140 C   0  0  0  0  0  0  0  0  0  0  0  0
  149.2000  153.0570  132.8680 C   0  0  0  0  0  0  0  0  0  0  0  0
  149.6040  153.3390  131.5550 O   0  0  0  0  0  0  0  0  0  0  0  0
  147.2930  153.6880  134.4740 C   0  0  0  0  0  0  0  0  0  0  0  0
  146.0800  153.3060  133.8830 O   0  0  0  0  0  0  0  0  0  0  0  0
  146.3020  156.9460  132.9890 C   0  0  0  0  0  0  0  0  0  0  0  0
  146.2380  158.3200  133.2480 C   0  0  0  0  0  0  0  0  0  0  0  0
  141.6090  158.7808  137.1307 H   0  0  0  0  0  0  0  0  0  0  0  0
  141.5019  160.4021  136.3649 H   0  0  0  0  0  0  0  0  0  0  0  0
  140.0737  159.3126  136.3649 H   0  0  0  0  0  0  0  0  0  0  0  0
  140.1641  160.1435  134.1684 H   0  0  0  0  0  0  0  0  0  0  0  0
  141.6456  159.9761  133.1666 H   0  0  0  0  0  0  0  0  0  0  0  0
  140.4094  158.6729  133.1666 H   0  0  0  0  0  0  0  0  0  0  0  0
  141.2104  156.8878  135.9810 H   0  0  0  0  0  0  0  0  0  0  0  0
  140.3371  157.0983  134.4254 H   0  0  0  0  0  0  0  0  0  0  0  0
  142.0894  156.7029  134.4254 H   0  0  0  0  0  0  0  0  0  0  0  0
  142.7620  160.7990  133.9020 H   0  0  0  0  0  0  0  0  0  0  0  0
  147.5987  161.3097  133.3840 H   0  0  0  0  0  0  0  0  0  0  0  0
  149.4741  159.2583  132.7093 H   0  0  0  0  0  0  0  0  0  0  0  0
  149.6658  156.7901  132.2659 H   0  0  0  0  0  0  0  0  0  0  0  0
  146.7000  154.5840  132.1520 H   0  0  0  0  0  0  0  0  0  0  0  0
  148.1920  154.8340  131.4440 H   0  0  0  0  0  0  0  0  0  0  0  0
  148.9687  154.8895  133.9383 H   0  0  0  0  0  0  0  0  0  0  0  0
  150.0898  152.9611  133.5076 H   0  0  0  0  0  0  0  0  0  0  0  0
  148.6280  152.1174  132.8698 H   0  0  0  0  0  0  0  0  0  0  0  0
  150.5970  153.3350  131.5510 H   0  0  0  0  0  0  0  0  0  0  0  0
  147.7249  152.8223  134.9974 H   0  0  0  0  0  0  0  0  0  0  0  0
  147.0926  154.5086  135.1786 H   0  0  0  0  0  0  0  0  0  0  0  0
  146.1180  152.3190  133.7890 H   0  0  0  0  0  0  0  0  0  0  0  0
  145.4061  156.3140  133.0778 H   0  0  0  0  0  0  0  0  0  0  0  0
  1  2  1  0
  2  3  1  0
  2  4  1  0
  2  5  1  0
  5  6  1  0
  6  7  2  0
  6  8  1  0
  8  9  1  0
  9 10  1  0
 10 11  1  0
 10 12  2  0
  9 13  2  0
 13 14  1  0
 14 15  2  0
 15 16  1  0
 16 17  2  0
 17 18  1  0
 18 19  1  0
 19 20  1  0
 20 21  1  0
 19 22  1  0
 22 23  1  0
 17 24  1  0
 24 25  2  0
 25  8  1  0
 25 14  1  0
  1 26  1  0
  1 27  1  0
  1 28  1  0
  3 29  1  0
  3 30  1  0
  3 31  1  0
  4 32  1  0
  4 33  1  0
  4 34  1  0
 11 35  1  0
 13 36  1  0
 15 37  1  0
 16 38  1  0
 18 39  1  0
 18 40  1  0
 19 41  1  0
 20 42  1  0
 20 43  1  0
 21 44  1  0
 22 45  1  0
 22 46  1  0
 23 47  1  0
 24 48  1  0
M  CHG  2  11  -1  18   1
M  END
>  <UniqueID>  (18) 
18

>  <SMILES>  (18) 
CC(C)(C)OC(=O)n1c(C([NH-])=O)cc2ccc([NH2+]C(CO)CO)cc21

>  <Energy>  (18) 
83.54861262588159

>  <Genealogy>  (18) 
CC(C)(C)OC(=O)n1c(C([NH-])=O)cc2ccc([NH2+]C(CO)CO)cc21 (protonated)
CC(C)(C)OC(=O)n1c(C([NH-])=O)cc2ccc([NH2+]C(CO)CO)cc21 (3D coordinates assigned)
CC(C)(C)OC(=O)n1c(C([NH-])=O)cc2ccc([NH2+]C(CO)CO)cc21 (optimized conformer: 83.54861262588159 kcal/mol)

>  <smiles>  (18) 
CC(C)(C)OC(=O)n1c(C(N)=O)cc2ccc(NC(CO)CO)cc21

>  <score_type>  (18) 
oracle

>  <origin>  (18) 
adg

>  <m_score__min__energy>  (18) 
-6.9299999999999997

>  <m_primary>  (18) 
energy

$$$$
18:0
     RDKit          3D

 47 48  0  0  0  0  0  0  0  0999 V2000
  147.7250  157.2320  131.9200 N   0  0  0  0  0  0  0  0  0  0  0  0
  147.3530  158.2330  132.8730 C   0  0  0  0  0  0  0  0  0  0  0  0
  148.2490  158.8350  133.5260 O   0  0  0  0  0  0  0  0  0  0  0  0
  145.9530  158.4570  133.2320 C   0  0  0  0  0  0  0  0  0  0  0  0
  145.4510  159.7450  133.3950 C   0  0  0  0  0  0  0  0  0  0  0  0
  144.1140  159.5740  133.6480 C   0  0  0  0  0  0  0  0  0  0  0  0
  143.1340  160.5280  133.8940 C   0  0  0  0  0  0  0  0  0  0  0  0
  141.8230  160.0790  134.1280 C   0  0  0  0  0  0  0  0  0  0  0  0
  141.5060  158.7000  134.0530 C   0  0  0  0  0  0  0  0  0  0  0  0
  140.1090  158.2170  134.3540 C   0  0  0  0  0  0  0  0  0  0  0  0
  139.7750  158.5670  135.6470 F   0  0  0  0  0  0  0  0  0  0  0  0
  140.0310  156.8380  134.2300 F   0  0  0  0  0  0  0  0  0  0  0  0
  139.1820  158.7830  133.4910 F   0  0  0  0  0  0  0  0  0  0  0  0
  142.5330  157.7600  133.7950 C   0  0  0  0  0  0  0  0  0  0  0  0
  143.8440  158.2250  133.6140 C   0  0  0  0  0  0  0  0  0  0  0  0
  144.9720  157.5150  133.3220 N   0  0  0  0  0  0  0  0  0  0  0  0
  145.0940  156.0670  133.2990 C   0  0  0  0  0  0  0  0  0  0  0  0
  145.3200  155.4840  132.1950 O   0  0  0  0  0  0  0  0  0  0  0  0
  144.8630  155.2000  134.5160 C   0  0  0  0  0  0  0  0  0  0  0  0
  146.0110  154.3440  134.8570 N   0  0  0  0  0  0  0  0  0  0  0  0
  146.7690  153.6640  133.7880 C   0  0  0  0  0  0  0  0  0  0  0  0
  148.1040  154.3740  133.5440 C   0  0  0  0  0  0  0  0  0  0  0  0
  148.1480  154.8880  132.2390 O   0  0  0  0  0  0  0  0  0  0  0  0
  146.1110  153.8170  136.2020 C   0  0  0  0  0  0  0  0  0  0  0  0
  145.0970  153.8000  136.9560 O   0  0  0  0  0  0  0  0  0  0  0  0
  147.3410  153.3310  136.6810 O   0  0  0  0  0  0  0  0  0  0  0  0
  148.2510  154.1320  137.4280 C   0  0  0  0  0  0  0  0  0  0  0  0
  148.8870  153.3470  138.4110 O   0  0  0  0  0  0  0  0  0  0  0  0
  148.7150  154.1200  139.9200 P   0  0  0  0  0  0  0  0  0  0  0  0
  149.5140  155.4060  139.8980 O   0  0  0  0  0  0  0  0  0  0  0  0
  149.2860  153.1360  141.1730 O   0  0  0  0  0  0  0  0  0  0  0  0
  147.0820  154.4820  140.1800 O   0  0  0  0  0  0  0  0  0  0  0  0
  148.7290  157.0700  131.6790 H   0  0  0  0  0  0  0  0  0  0  0  0
  147.0000  156.6190  131.4850 H   0  0  0  0  0  0  0  0  0  0  0  0
  146.0056  160.6930  133.3342 H   0  0  0  0  0  0  0  0  0  0  0  0
  143.3767  161.6008  133.9052 H   0  0  0  0  0  0  0  0  0  0  0  0
  141.0344  160.8060  134.3721 H   0  0  0  0  0  0  0  0  0  0  0  0
  142.3070  156.6850  133.7376 H   0  0  0  0  0  0  0  0  0  0  0  0
  144.6506  155.8547  135.3740 H   0  0  0  0  0  0  0  0  0  0  0  0
  144.0214  154.5319  134.2807 H   0  0  0  0  0  0  0  0  0  0  0  0
  146.9616  152.6230  134.0865 H   0  0  0  0  0  0  0  0  0  0  0  0
  146.1776  153.6887  132.8608 H   0  0  0  0  0  0  0  0  0  0  0  0
  148.2136  155.1989  134.2634 H   0  0  0  0  0  0  0  0  0  0  0  0
  148.9236  153.6517  133.6732 H   0  0  0  0  0  0  0  0  0  0  0  0
  147.2870  154.6550  131.8030 H   0  0  0  0  0  0  0  0  0  0  0  0
  149.0088  154.5516  136.7500 H   0  0  0  0  0  0  0  0  0  0  0  0
  147.6978  154.9469  137.9178 H   0  0  0  0  0  0  0  0  0  0  0  0
  1  2  1  0
  2  3  2  0
  2  4  1  0
  4  5  2  0
  5  6  1  0
  6  7  2  0
  7  8  1  0
  8  9  2  0
  9 10  1  0
 10 11  1  0
 10 12  1  0
 10 13  1  0
  9 14  1  0
 14 15  2  0
 15 16  1  0
 16 17  1  0
 17 18  2  0
 17 19  1  0
 19 20  1  0
 20 21  1  0
 21 22  1  0
 22 23  1  0
 20 24  1  0
 24 25  2  0
 24 26  1  0
 26 27  1  0
 27 28  1  0
 28 29  1  0
 29 30  2  0
 29 31  1  0
 29 32  1  0
 16  4  1  0
 15  6  1  0
  1 33  1  0
  1 34  1  0
  5 35  1  0
  7 36  1  0
  8 37  1  0
 14 38  1  0
 19 39  1  0
 19 40  1  0
 21 41  1  0
 21 42  1  0
 22 43  1  0
 22 44  1  0
 23 45  1  0
 27 46  1  0
 27 47  1  0
M  CHG  2  31  -1  32  -1
M  END
>  <UniqueID>  (19) 
19

>  <SMILES>  (19) 
NC(=O)c1cc2ccc(C(F)(F)F)cc2n1C(=O)CN(CCO)C(=O)OCOP(=O)([O-])[O-]

>  <Energy>  (19) 
90.47252414612826

>  <Genealogy>  (19) 
NC(=O)c1cc2ccc(C(F)(F)F)cc2n1C(=O)CN(CCO)C(=O)OCOP(=O)([O-])[O-] (protonated)
NC(=O)c1cc2ccc(C(F)(F)F)cc2n1C(=O)CN(CCO)C(=O)OCOP(=O)([O-])[O-] (3D coordinates assigned)
NC(=O)c1cc2ccc(C(F)(F)F)cc2n1C(=O)CN(CCO)C(=O)OCOP(=O)([O-])[O-] (optimized conformer: 90.47252414612826 kcal/mol)

>  <smiles>  (19) 
NC(=O)c1cc2ccc(C(F)(F)F)cc2n1C(=O)CN(CCO)C(=O)OCOP(=O)(O)O

>  <score_type>  (19) 
oracle

>  <origin>  (19) 
adg

>  <m_score__min__energy>  (19) 
-7.5800000000000001

>  <m_primary>  (19) 
energy

$$$$
19:0
     RDKit          3D

 45 47  0  0  0  0  0  0  0  0999 V2000
  139.8680  149.4410  129.7060 C   0  0  0  0  0  0  0  0  0  0  0  0
  139.5540  148.8460  131.0160 N   0  0  0  0  0  0  0  0  0  0  0  0
  140.7540  148.4790  131.7740 C   0  0  0  0  0  0  0  0  0  0  0  0
  141.5780  149.6900  132.2450 C   0  0  0  0  0  0  0  0  0  0  0  0
  140.7970  150.9130  132.5390 N   0  0  0  0  0  0  0  0  0  0  0  0
  141.5070  152.1110  132.9830 C   0  0  0  0  0  0  0  0  0  0  0  0
  142.8810  152.0550  133.3680 C   0  0  0  0  0  0  0  0  0  0  0  0
  143.5770  153.2100  133.7620 C   0  0  0  0  0  0  0  0  0  0  0  0
  142.8980  154.4180  133.7630 C   0  0  0  0  0  0  0  0  0  0  0  0
  143.3410  155.6830  134.0760 C   0  0  0  0  0  0  0  0  0  0  0  0
  142.2430  156.5180  133.8700 C   0  0  0  0  0  0  0  0  0  0  0  0
  142.2930  157.9940  133.9550 C   0  0  0  0  0  0  0  0  0  0  0  0
  141.9980  158.8010  132.8170 N   0  0  0  0  0  0  0  0  0  0  0  0
  142.5530  158.5560  135.0530 O   0  0  0  0  0  0  0  0  0  0  0  0
  141.1680  155.7880  133.4610 N   0  0  0  0  0  0  0  0  0  0  0  0
  139.8550  156.2610  133.1230 C   0  0  0  0  0  0  0  0  0  0  0  0
  139.1070  155.5610  132.3860 O   0  0  0  0  0  0  0  0  0  0  0  0
  139.3250  157.5320  133.7160 C   0  0  0  0  0  0  0  0  0  0  0  0
  139.1350  158.7870  132.4180 P   0  0  0  0  0  0  0  0  0  0  0  0
  139.8420  158.3370  131.1630 O   0  0  0  0  0  0  0  0  0  0  0  0
  139.7960  160.2540  132.9380 O   0  0  0  0  0  0  0  0  0  0  0  0
  137.4930  159.0010  132.0890 O   0  0  0  0  0  0  0  0  0  0  0  0
  141.5880  154.5070  133.3980 C   0  0  0  0  0  0  0  0  0  0  0  0
  140.8540  153.3820  133.0170 C   0  0  0  0  0  0  0  0  0  0  0  0
  139.3540  151.0190  132.2330 C   0  0  0  0  0  0  0  0  0  0  0  0
  138.6890  149.6940  131.8430 C   0  0  0  0  0  0  0  0  0  0  0  0
  140.3767  150.4050  129.8536 H   0  0  0  0  0  0  0  0  0  0  0  0
  140.5252  148.7620  129.1429 H   0  0  0  0  0  0  0  0  0  0  0  0
  138.9366  149.6004  129.1429 H   0  0  0  0  0  0  0  0  0  0  0  0
  140.4442  147.9036  132.6588 H   0  0  0  0  0  0  0  0  0  0  0  0
  141.3961  147.8941  131.0991 H   0  0  0  0  0  0  0  0  0  0  0  0
  142.1135  149.4007  133.1613 H   0  0  0  0  0  0  0  0  0  0  0  0
  142.2430  149.9486  131.4078 H   0  0  0  0  0  0  0  0  0  0  0  0
  143.4050  151.0879  133.3558 H   0  0  0  0  0  0  0  0  0  0  0  0
  144.6339  153.1568  134.0620 H   0  0  0  0  0  0  0  0  0  0  0  0
  144.3461  155.9733  134.4159 H   0  0  0  0  0  0  0  0  0  0  0  0
  141.9520  159.8380  132.9130 H   0  0  0  0  0  0  0  0  0  0  0  0
  141.8880  158.3880  131.8630 H   0  0  0  0  0  0  0  0  0  0  0  0
  138.3474  157.3376  134.1813 H   0  0  0  0  0  0  0  0  0  0  0  0
  140.0313  157.8998  134.4749 H   0  0  0  0  0  0  0  0  0  0  0  0
  139.7913  153.4723  132.7476 H   0  0  0  0  0  0  0  0  0  0  0  0
  138.8417  151.4117  133.1237 H   0  0  0  0  0  0  0  0  0  0  0  0
  139.2668  151.6823  131.3598 H   0  0  0  0  0  0  0  0  0  0  0  0
  138.4332  149.1454  132.7615 H   0  0  0  0  0  0  0  0  0  0  0  0
  137.7949  149.9343  131.2490 H   0  0  0  0  0  0  0  0  0  0  0  0
  1  2  1  0
  2  3  1  0
  3  4  1  0
  4  5  1  0
  5  6  1  0
  6  7  2  0
  7  8  1  0
  8  9  2  0
  9 10  1  0
 10 11  2  0
 11 12  1  0
 12 13  1  0
 12 14  2  0
 11 15  1  0
 15 16  1  0
 16 17  2  0
 16 18  1  0
 18 19  1  0
 19 20  2  0
 19 21  1  0
 19 22  1  0
 15 23  1  0
 23 24  2  0
  5 25  1  0
 25 26  1  0
 26  2  1  0
 24  6  1  0
 23  9  1  0
  1 27  1  0
  1 28  1  0
  1 29  1  0
  3 30  1  0
  3 31  1  0
  4 32  1  0
  4 33  1  0
  7 34  1  0
  8 35  1  0
 10 36  1  0
 13 37  1  0
 13 38  1  0
 18 39  1  0
 18 40  1  0
 24 41  1  0
 25 42  1  0
 25 43  1  0
 26 44  1  0
 26 45  1  0
M  CHG  2  21  -1  22  -1
M  END
>  <UniqueID>  (20) 
20

>  <SMILES>  (20) 
CN1CCN(c2ccc3cc(C(N)=O)n(C(=O)CP(=O)([O-])[O-])c3c2)CC1

>  <Energy>  (20) 
91.12359952066902

>  <Genealogy>  (20) 
CN1CCN(c2ccc3cc(C(N)=O)n(C(=O)CP(=O)([O-])[O-])c3c2)CC1 (protonated)
CN1CCN(c2ccc3cc(C(N)=O)n(C(=O)CP(=O)([O-])[O-])c3c2)CC1 (3D coordinates assigned)
CN1CCN(c2ccc3cc(C(N)=O)n(C(=O)CP(=O)([O-])[O-])c3c2)CC1 (nonaromatic ring conformer: 91.12359952066902 kcal/mol)

>  <smiles>  (20) 
CN1CCN(c2ccc3cc(C(N)=O)n(C(=O)CP(=O)(O)O)c3c2)CC1

>  <score_type>  (20) 
oracle

>  <origin>  (20) 
adg

>  <m_score__min__energy>  (20) 
-7.7599999999999998

>  <m_primary>  (20) 
energy

$$$$
20:0
     RDKit          3D

 53 54  0  0  0  0  0  0  0  0999 V2000
  138.1810  149.2500  131.0720 C   0  0  0  0  0  0  0  0  0  0  0  0
  139.5700  149.5900  131.5230 C   0  0  0  0  0  0  0  0  0  0  0  0
  140.5680  148.5880  131.5730 C   0  0  0  0  0  0  0  0  0  0  0  0
  141.8600  148.8890  132.0370 C   0  0  0  0  0  0  0  0  0  0  0  0
  142.1170  150.1930  132.4520 C   0  0  0  0  0  0  0  0  0  0  0  0
  143.2660  150.7450  132.9710 C   0  0  0  0  0  0  0  0  0  0  0  0
  142.9530  152.0790  133.2240 C   0  0  0  0  0  0  0  0  0  0  0  0
  143.9350  153.0640  133.7150 C   0  0  0  0  0  0  0  0  0  0  0  0
  144.9160  153.5960  132.8270 N   0  0  0  0  0  0  0  0  0  0  0  0
  143.8900  153.4770  134.9040 O   0  0  0  0  0  0  0  0  0  0  0  0
  141.6610  152.3410  132.8850 N   0  0  0  0  0  0  0  0  0  0  0  0
  140.9300  153.5620  133.1040 C   0  0  0  0  0  0  0  0  0  0  0  0
  139.6890  153.6060  132.8790 O   0  0  0  0  0  0  0  0  0  0  0  0
  141.6020  154.6930  133.5890 O   0  0  0  0  0  0  0  0  0  0  0  0
  141.1250  156.0310  133.4430 C   0  0  0  0  0  0  0  0  0  0  0  0
  142.0380  156.7900  132.6510 O   0  0  0  0  0  0  0  0  0  0  0  0
  143.2760  157.2400  133.1220 C   0  0  0  0  0  0  0  0  0  0  0  0
  143.5920  158.4580  133.0250 O   0  0  0  0  0  0  0  0  0  0  0  0
  144.1710  156.3040  133.7310 N   0  0  0  0  0  0  0  0  0  0  0  0
  145.4600  156.6820  134.3080 C   0  0  0  0  0  0  0  0  0  0  0  0
  146.5510  155.8590  133.7080 C   0  0  0  0  0  0  0  0  0  0  0  0
  146.7120  155.8470  132.4560 O   0  0  0  0  0  0  0  0  0  0  0  0
  147.3880  155.1130  134.5440 O   0  0  0  0  0  0  0  0  0  0  0  0
  147.0940  153.7750  134.9310 C   0  0  0  0  0  0  0  0  0  0  0  0
  146.8240  153.7410  136.3280 O   0  0  0  0  0  0  0  0  0  0  0  0
  147.7480  153.2500  137.2560 C   0  0  0  0  0  0  0  0  0  0  0  0
  147.6050  152.0940  137.7480 O   0  0  0  0  0  0  0  0  0  0  0  0
  148.8640  154.1440  137.7200 C   0  0  0  0  0  0  0  0  0  0  0  0
  149.2780  153.8930  139.1770 C   0  0  0  0  0  0  0  0  0  0  0  0
  148.4330  154.6560  140.1540 C   0  0  0  0  0  0  0  0  0  0  0  0
  147.1860  154.4880  140.1840 O   0  0  0  0  0  0  0  0  0  0  0  0
  149.0270  155.5840  141.0050 O   0  0  0  0  0  0  0  0  0  0  0  0
  141.1600  151.1760  132.4120 C   0  0  0  0  0  0  0  0  0  0  0  0
  139.8620  150.8990  131.9650 C   0  0  0  0  0  0  0  0  0  0  0  0
  137.5384  149.0927  131.9508 H   0  0  0  0  0  0  0  0  0  0  0  0
  137.7793  150.0763  130.4672 H   0  0  0  0  0  0  0  0  0  0  0  0
  138.2064  148.3315  130.4672 H   0  0  0  0  0  0  0  0  0  0  0  0
  140.3305  147.5649  131.2460 H   0  0  0  0  0  0  0  0  0  0  0  0
  142.6440  148.1182  132.0713 H   0  0  0  0  0  0  0  0  0  0  0  0
  144.2272  150.2403  133.1484 H   0  0  0  0  0  0  0  0  0  0  0  0
  145.8130  153.9920  133.1900 H   0  0  0  0  0  0  0  0  0  0  0  0
  140.1413  156.0156  132.9510 H   0  0  0  0  0  0  0  0  0  0  0  0
  141.0372  156.4940  134.4369 H   0  0  0  0  0  0  0  0  0  0  0  0
  143.9030  155.2930  133.7360 H   0  0  0  0  0  0  0  0  0  0  0  0
  145.6522  157.7457  134.1038 H   0  0  0  0  0  0  0  0  0  0  0  0
  145.4334  156.5085  135.3939 H   0  0  0  0  0  0  0  0  0  0  0  0
  146.2137  153.4167  134.3772 H   0  0  0  0  0  0  0  0  0  0  0  0
  147.9537  153.1272  134.7047 H   0  0  0  0  0  0  0  0  0  0  0  0
  149.7384  153.9744  137.0745 H   0  0  0  0  0  0  0  0  0  0  0  0
  148.4982  155.1796  137.6592 H   0  0  0  0  0  0  0  0  0  0  0  0
  149.1814  152.8184  139.3910 H   0  0  0  0  0  0  0  0  0  0  0  0
  150.3164  154.2369  139.2934 H   0  0  0  0  0  0  0  0  0  0  0  0
  139.0891  151.6817  131.9584 H   0  0  0  0  0  0  0  0  0  0  0  0
  1  2  1  0
  2  3  2  0
  3  4  1  0
  4  5  2  0
  5  6  1  0
  6  7  2  0
  7  8  1  0
  8  9  1  0
  8 10  2  0
  7 11  1  0
 11 12  1  0
 12 13  2  0
 12 14  1  0
 14 15  1  0
 15 16  1  0
 16 17  1  0
 17 18  2  0
 17 19  1  0
 19 20  1  0
 20 21  1  0
 21 22  2  0
 21 23  1  0
 23 24  1  0
 24 25  1  0
 25 26  1  0
 26 27  2  0
 26 28  1  0
 28 29  1  0
 29 30  1  0
 30 31  2  0
 30 32  1  0
 11 33  1  0
 33 34  2  0
 34  2  1  0
 33  5  1  0
  1 35  1  0
  1 36  1  0
  1 37  1  0
  3 38  1  0
  4 39  1  0
  6 40  1  0
  9 41  1  0
 15 42  1  0
 15 43  1  0
 19 44  1  0
 20 45  1  0
 20 46  1  0
 24 47  1  0
 24 48  1  0
 28 49  1  0
 28 50  1  0
 29 51  1  0
 29 52  1  0
 34 53  1  0
M  CHG  2   9  -1  32  -1
M  END
>  <UniqueID>  (21) 
21

>  <SMILES>  (21) 
Cc1ccc2cc(C([NH-])=O)n(C(=O)OCOC(=O)NCC(=O)OCOC(=O)CCC(=O)[O-])c2c1

>  <Energy>  (21) 
81.95237352788395

>  <Genealogy>  (21) 
Cc1ccc2cc(C([NH-])=O)n(C(=O)OCOC(=O)NCC(=O)OCOC(=O)CCC(=O)[O-])c2c1 (protonated)
Cc1ccc2cc(C([NH-])=O)n(C(=O)OCOC(=O)NCC(=O)OCOC(=O)CCC(=O)[O-])c2c1 (3D coordinates assigned)
Cc1ccc2cc(C([NH-])=O)n(C(=O)OCOC(=O)NCC(=O)OCOC(=O)CCC(=O)[O-])c2c1 (optimized conformer: 81.95237352788395 kcal/mol)

>  <smiles>  (21) 
Cc1ccc2cc(C(N)=O)n(C(=O)OCOC(=O)NCC(=O)OCOC(=O)CCC(=O)O)c2c1

>  <score_type>  (21) 
oracle

>  <origin>  (21) 
adg

>  <m_score__min__energy>  (21) 
-6.6600000000000001

>  <m_primary>  (21) 
energy

$$$$
21:0
     RDKit          3D

 32 33  0  0  0  0  0  0  0  0999 V2000
  143.3120  161.4380  133.6130 N   0  0  0  0  0  0  0  0  0  0  0  0
  144.7040  161.4980  133.9130 C   0  0  0  0  0  0  0  0  0  0  0  0
  145.1820  162.5480  134.4180 O   0  0  0  0  0  0  0  0  0  0  0  0
  145.5770  160.3500  133.5890 C   0  0  0  0  0  0  0  0  0  0  0  0
  146.9550  160.4600  133.4080 C   0  0  0  0  0  0  0  0  0  0  0  0
  147.4010  159.1730  133.2140 C   0  0  0  0  0  0  0  0  0  0  0  0
  148.6860  158.6980  132.9730 C   0  0  0  0  0  0  0  0  0  0  0  0
  148.8530  157.3160  132.7790 C   0  0  0  0  0  0  0  0  0  0  0  0
  147.7390  156.4410  132.8270 C   0  0  0  0  0  0  0  0  0  0  0  0
  147.9190  154.9670  132.6030 C   0  0  0  0  0  0  0  0  0  0  0  0
  147.5000  154.2720  133.7220 F   0  0  0  0  0  0  0  0  0  0  0  0
  149.2520  154.6890  132.3640 F   0  0  0  0  0  0  0  0  0  0  0  0
  146.4480  156.9610  133.0720 C   0  0  0  0  0  0  0  0  0  0  0  0
  146.3150  158.3390  133.2770 C   0  0  0  0  0  0  0  0  0  0  0  0
  145.1860  159.0470  133.5060 N   0  0  0  0  0  0  0  0  0  0  0  0
  143.8490  158.5260  133.5610 C   0  0  0  0  0  0  0  0  0  0  0  0
  143.4070  157.8270  132.6080 O   0  0  0  0  0  0  0  0  0  0  0  0
  143.0360  158.8130  134.6640 O   0  0  0  0  0  0  0  0  0  0  0  0
  141.6650  158.4310  134.7500 C   0  0  0  0  0  0  0  0  0  0  0  0
  140.7870  159.3980  133.9550 C   0  0  0  0  0  0  0  0  0  0  0  0
  141.3100  159.5820  132.6680 O   0  0  0  0  0  0  0  0  0  0  0  0
  142.7940  160.5320  133.6470 H   0  0  0  0  0  0  0  0  0  0  0  0
  147.5576  161.3802  133.4181 H   0  0  0  0  0  0  0  0  0  0  0  0
  149.5456  159.3833  132.9354 H   0  0  0  0  0  0  0  0  0  0  0  0
  149.8573  156.9098  132.5882 H   0  0  0  0  0  0  0  0  0  0  0  0
  147.3199  154.6596  131.7332 H   0  0  0  0  0  0  0  0  0  0  0  0
  145.5697  156.2993  133.1009 H   0  0  0  0  0  0  0  0  0  0  0  0
  141.5461  157.4162  134.3426 H   0  0  0  0  0  0  0  0  0  0  0  0
  141.3551  158.4557  135.8051 H   0  0  0  0  0  0  0  0  0  0  0  0
  139.7701  158.9857  133.8782 H   0  0  0  0  0  0  0  0  0  0  0  0
  140.7616  160.3678  134.4735 H   0  0  0  0  0  0  0  0  0  0  0  0
  142.2920  159.6840  132.7720 H   0  0  0  0  0  0  0  0  0  0  0  0
  1  2  1  0
  2  3  2  0
  2  4  1  0
  4  5  2  0
  5  6  1  0
  6  7  2  0
  7  8  1  0
  8  9  2  0
  9 10  1  0
 10 11  1  0
 10 12  1  0
  9 13  1  0
 13 14  2  0
 14 15  1  0
 15 16  1  0
 16 17  2  0
 16 18  1  0
 18 19  1  0
 19 20  1  0
 20 21  1  0
 15  4  1  0
 14  6  1  0
  1 22  1  0
  5 23  1  0
  7 24  1  0
  8 25  1  0
 10 26  1  0
 13 27  1  0
 19 28  1  0
 19 29  1  0
 20 30  1  0
 20 31  1  0
 21 32  1  0
M  CHG  1   1  -1
M  END
>  <UniqueID>  (22) 
22

>  <SMILES>  (22) 
[NH-]C(=O)c1cc2ccc(C(F)F)cc2n1C(=O)OCCO

>  <Energy>  (22) 
67.00787479191877

>  <Genealogy>  (22) 
[NH-]C(=O)c1cc2ccc(C(F)F)cc2n1C(=O)OCCO (protonated)
[NH-]C(=O)c1cc2ccc(C(F)F)cc2n1C(=O)OCCO (3D coordinates assigned)
[NH-]C(=O)c1cc2ccc(C(F)F)cc2n1C(=O)OCCO (optimized conformer: 67.00787479191877 kcal/mol)

>  <smiles>  (22) 
NC(=O)c1cc2ccc(C(F)F)cc2n1C(=O)OCCO

>  <score_type>  (22) 
oracle

>  <origin>  (22) 
adg

>  <m_score__min__energy>  (22) 
-5.1200000000000001

>  <m_primary>  (22) 
energy

$$$$
22:0
     RDKit          3D

 38 39  0  0  0  0  0  0  0  0999 V2000
  137.9050  159.4800  130.7360 C   0  0  0  0  0  0  0  0  0  0  0  0
  139.3490  159.1510  131.7240 S   0  0  0  0  0  0  0  0  0  0  0  0
  140.5350  159.0090  130.8130 O   0  0  0  0  0  0  0  0  0  0  0  0
  139.5870  160.3030  132.6570 O   0  0  0  0  0  0  0  0  0  0  0  0
  139.1540  157.6270  132.6460 C   0  0  0  0  0  0  0  0  0  0  0  0
  140.4940  157.0080  133.0570 C   0  0  0  0  0  0  0  0  0  0  0  0
  141.5450  158.0220  133.1020 N   0  0  0  0  0  0  0  0  0  0  0  0
  142.9050  157.7320  133.4600 C   0  0  0  0  0  0  0  0  0  0  0  0
  143.2590  156.5470  133.7040 O   0  0  0  0  0  0  0  0  0  0  0  0
  143.8700  158.7930  133.5470 N   0  0  0  0  0  0  0  0  0  0  0  0
  143.6280  160.1240  133.7150 C   0  0  0  0  0  0  0  0  0  0  0  0
  142.3100  160.7390  133.9750 C   0  0  0  0  0  0  0  0  0  0  0  0
  141.3680  160.0730  134.8120 N   0  0  0  0  0  0  0  0  0  0  0  0
  141.9940  161.8350  133.4420 O   0  0  0  0  0  0  0  0  0  0  0  0
  144.8210  160.8440  133.6750 C   0  0  0  0  0  0  0  0  0  0  0  0
  145.8070  159.9060  133.4770 C   0  0  0  0  0  0  0  0  0  0  0  0
  147.1840  160.0680  133.3540 C   0  0  0  0  0  0  0  0  0  0  0  0
  147.9650  158.9230  133.1280 C   0  0  0  0  0  0  0  0  0  0  0  0
  147.3600  157.6440  133.0060 C   0  0  0  0  0  0  0  0  0  0  0  0
  148.2100  156.4170  132.8010 C   0  0  0  0  0  0  0  0  0  0  0  0
  147.5730  155.5150  131.9650 F   0  0  0  0  0  0  0  0  0  0  0  0
  149.4250  156.7520  132.2300 F   0  0  0  0  0  0  0  0  0  0  0  0
  148.4380  155.8130  134.0230 F   0  0  0  0  0  0  0  0  0  0  0  0
  145.9590  157.5200  133.1610 C   0  0  0  0  0  0  0  0  0  0  0  0
  145.2090  158.6760  133.4010 C   0  0  0  0  0  0  0  0  0  0  0  0
  137.0464  159.6756  131.3952 H   0  0  0  0  0  0  0  0  0  0  0  0
  138.0877  160.3595  130.1011 H   0  0  0  0  0  0  0  0  0  0  0  0
  137.6887  158.6081  130.1011 H   0  0  0  0  0  0  0  0  0  0  0  0
  138.5705  157.8376  133.5544 H   0  0  0  0  0  0  0  0  0  0  0  0
  138.6423  156.9062  131.9913 H   0  0  0  0  0  0  0  0  0  0  0  0
  140.3900  156.5527  134.0530 H   0  0  0  0  0  0  0  0  0  0  0  0
  140.7721  156.2465  132.3135 H   0  0  0  0  0  0  0  0  0  0  0  0
  141.2880  159.0040  132.8600 H   0  0  0  0  0  0  0  0  0  0  0  0
  140.5270  159.6050  134.4070 H   0  0  0  0  0  0  0  0  0  0  0  0
  144.9470  161.9317  133.7796 H   0  0  0  0  0  0  0  0  0  0  0  0
  147.6465  161.0630  133.4315 H   0  0  0  0  0  0  0  0  0  0  0  0
  149.0577  159.0179  133.0445 H   0  0  0  0  0  0  0  0  0  0  0  0
  145.4707  156.5366  133.0942 H   0  0  0  0  0  0  0  0  0  0  0  0
  1  2  1  0
  2  3  2  0
  2  4  2  0
  2  5  1  0
  5  6  1  0
  6  7  1  0
  7  8  1  0
  8  9  2  0
  8 10  1  0
 10 11  1  0
 11 12  1  0
 12 13  1  0
 12 14  2  0
 11 15  2  0
 15 16  1  0
 16 17  2  0
 17 18  1  0
 18 19  2  0
 19 20  1  0
 20 21  1  0
 20 22  1  0
 20 23  1  0
 19 24  1  0
 24 25  2  0
 25 10  1  0
 25 16  1  0
  1 26  1  0
  1 27  1  0
  1 28  1  0
  5 29  1  0
  5 30  1  0
  6 31  1  0
  6 32  1  0
  7 33  1  0
 13 34  1  0
 15 35  1  0
 17 36  1  0
 18 37  1  0
 24 38  1  0
M  CHG  1  13  -1
M  END
>  <UniqueID>  (23) 
23

>  <SMILES>  (23) 
CS(=O)(=O)CCNC(=O)n1c(C([NH-])=O)cc2ccc(C(F)(F)F)cc21

>  <Energy>  (23) 
66.87783093063777

>  <Genealogy>  (23) 
CS(=O)(=O)CCNC(=O)n1c(C([NH-])=O)cc2ccc(C(F)(F)F)cc21 (protonated)
CS(=O)(=O)CCNC(=O)n1c(C([NH-])=O)cc2ccc(C(F)(F)F)cc21 (3D coordinates assigned)
CS(=O)(=O)CCNC(=O)n1c(C([NH-])=O)cc2ccc(C(F)(F)F)cc21 (optimized conformer: 66.87783093063777 kcal/mol)

>  <smiles>  (23) 
CS(=O)(=O)CCNC(=O)n1c(C(N)=O)cc2ccc(C(F)(F)F)cc21

>  <score_type>  (23) 
oracle

>  <origin>  (23) 
adg

>  <m_score__min__energy>  (23) 
-7.0899999999999999

>  <m_primary>  (23) 
energy

$$$$
23:0
     RDKit          3D

 43 45  0  0  0  0  0  0  0  0999 V2000
  147.8090  155.0300  132.6030 C   0  0  0  0  0  0  0  0  0  0  0  0
  147.6370  156.5000  132.8450 C   0  0  0  0  0  0  0  0  0  0  0  0
  148.7490  157.3710  132.7470 C   0  0  0  0  0  0  0  0  0  0  0  0
  148.5920  158.7560  132.9250 C   0  0  0  0  0  0  0  0  0  0  0  0
  147.3140  159.2380  133.1940 C   0  0  0  0  0  0  0  0  0  0  0  0
  146.8750  160.5290  133.3850 C   0  0  0  0  0  0  0  0  0  0  0  0
  145.5030  160.4230  133.6030 C   0  0  0  0  0  0  0  0  0  0  0  0
  144.6420  161.5720  133.9540 C   0  0  0  0  0  0  0  0  0  0  0  0
  143.2360  161.5330  133.7220 N   0  0  0  0  0  0  0  0  0  0  0  0
  145.1460  162.5840  134.5100 O   0  0  0  0  0  0  0  0  0  0  0  0
  145.1080  159.1210  133.5340 N   0  0  0  0  0  0  0  0  0  0  0  0
  143.7750  158.6010  133.6320 C   0  0  0  0  0  0  0  0  0  0  0  0
  143.2320  158.0740  132.6230 O   0  0  0  0  0  0  0  0  0  0  0  0
  143.0890  158.6760  134.8490 O   0  0  0  0  0  0  0  0  0  0  0  0
  141.8130  159.2940  134.9850 C   0  0  0  0  0  0  0  0  0  0  0  0
  140.8890  158.7860  133.9500 N   0  0  0  0  0  0  0  0  0  0  0  0
  140.3350  159.6330  133.0220 C   0  0  0  0  0  0  0  0  0  0  0  0
  140.6420  160.8580  133.0230 O   0  0  0  0  0  0  0  0  0  0  0  0
  139.4220  159.1440  132.0690 C   0  0  0  0  0  0  0  0  0  0  0  0
  138.7840  160.0170  131.0480 C   0  0  0  0  0  0  0  0  0  0  0  0
  139.4250  160.4130  130.0380 O   0  0  0  0  0  0  0  0  0  0  0  0
  137.4590  160.4140  131.1940 O   0  0  0  0  0  0  0  0  0  0  0  0
  139.1100  157.7820  132.1030 C   0  0  0  0  0  0  0  0  0  0  0  0
  139.6790  156.9570  133.0250 N   0  0  0  0  0  0  0  0  0  0  0  0
  139.3190  155.5330  133.0440 C   0  0  0  0  0  0  0  0  0  0  0  0
  140.5570  157.4540  133.9490 C   0  0  0  0  0  0  0  0  0  0  0  0
  141.0630  156.6790  134.8100 O   0  0  0  0  0  0  0  0  0  0  0  0
  146.2270  158.4070  133.2910 C   0  0  0  0  0  0  0  0  0  0  0  0
  146.3510  157.0260  133.1020 C   0  0  0  0  0  0  0  0  0  0  0  0
  147.8705  154.5044  133.5673 H   0  0  0  0  0  0  0  0  0  0  0  0
  146.9493  154.6493  132.0321 H   0  0  0  0  0  0  0  0  0  0  0  0
  148.7334  154.8581  132.0321 H   0  0  0  0  0  0  0  0  0  0  0  0
  149.7456  156.9594  132.5294 H   0  0  0  0  0  0  0  0  0  0  0  0
  149.4521  159.4380  132.8540 H   0  0  0  0  0  0  0  0  0  0  0  0
  147.4789  161.4483  133.3689 H   0  0  0  0  0  0  0  0  0  0  0  0
  142.7310  160.6230  133.6250 H   0  0  0  0  0  0  0  0  0  0  0  0
  141.4036  159.0678  135.9806 H   0  0  0  0  0  0  0  0  0  0  0  0
  141.9254  160.3816  134.8643 H   0  0  0  0  0  0  0  0  0  0  0  0
  138.3951  157.3709  131.3751 H   0  0  0  0  0  0  0  0  0  0  0  0
  139.2324  155.1906  134.0858 H   0  0  0  0  0  0  0  0  0  0  0  0
  138.3567  155.3912  132.5302 H   0  0  0  0  0  0  0  0  0  0  0  0
  140.0982  154.9509  132.5302 H   0  0  0  0  0  0  0  0  0  0  0  0
  145.4711  156.3677  133.1522 H   0  0  0  0  0  0  0  0  0  0  0  0
  1  2  1  0
  2  3  2  0
  3  4  1  0
  4  5  2  0
  5  6  1  0
  6  7  2  0
  7  8  1  0
  8  9  1  0
  8 10  2  0
  7 11  1  0
 11 12  1  0
 12 13  2  0
 12 14  1  0
 14 15  1  0
 15 16  1  0
 16 17  1  0
 17 18  2  0
 17 19  1  0
 19 20  1  0
 20 21  2  0
 20 22  1  0
 19 23  2  0
 23 24  1  0
 24 25  1  0
 24 26  1  0
 26 27  2  0
 11 28  1  0
 28 29  2  0
 29  2  1  0
 28  5  1  0
 26 16  1  0
  1 30  1  0
  1 31  1  0
  1 32  1  0
  3 33  1  0
  4 34  1  0
  6 35  1  0
  9 36  1  0
 15 37  1  0
 15 38  1  0
 23 39  1  0
 25 40  1  0
 25 41  1  0
 25 42  1  0
 29 43  1  0
M  CHG  2   9  -1  22  -1
M  END
>  <UniqueID>  (24) 
24

>  <SMILES>  (24) 
Cc1ccc2cc(C([NH-])=O)n(C(=O)OCn3c(=O)c(C(=O)[O-])cn(C)c3=O)c2c1

>  <Energy>  (24) 
90.39167841181404

>  <Genealogy>  (24) 
Cc1ccc2cc(C([NH-])=O)n(C(=O)OCn3c(=O)c(C(=O)[O-])cn(C)c3=O)c2c1 (protonated)
Cc1ccc2cc(C([NH-])=O)n(C(=O)OCn3c(=O)c(C(=O)[O-])cn(C)c3=O)c2c1 (3D coordinates assigned)
Cc1ccc2cc(C([NH-])=O)n(C(=O)OCn3c(=O)c(C(=O)[O-])cn(C)c3=O)c2c1 (optimized conformer: 90.39167841181404 kcal/mol)

>  <smiles>  (24) 
Cc1ccc2cc(C(N)=O)n(C(=O)OCn3c(=O)c(C(=O)O)cn(C)c3=O)c2c1

>  <score_type>  (24) 
oracle

>  <origin>  (24) 
adg

>  <m_score__min__energy>  (24) 
-8.2300000000000004

>  <m_primary>  (24) 
energy

$$$$
24:0
     RDKit          3D

 61 62  0  0  0  0  0  0  0  0999 V2000
  149.6570  153.5800  132.1890 C   0  0  0  0  0  0  0  0  0  0  0  0
  148.5760  152.7020  133.3640 S   0  0  0  0  0  0  0  0  0  0  0  0
  147.9920  154.2180  134.1970 C   0  0  0  0  0  0  0  0  0  0  0  0
  146.4700  154.1820  134.4010 C   0  0  0  0  0  0  0  0  0  0  0  0
  145.8180  155.5730  134.5640 C   0  0  2  0  0  0  0  0  0  0  0  0
  144.3830  155.4440  134.8610 N   0  0  0  0  0  0  0  0  0  0  0  0
  143.4710  154.7880  133.9630 C   0  0  0  0  0  0  0  0  0  0  0  0
  143.8690  154.3880  132.8340 O   0  0  0  0  0  0  0  0  0  0  0  0
  142.0320  154.5630  134.3550 C   0  0  1  0  0  0  0  0  0  0  0  0
  141.2060  154.0670  133.1590 C   0  0  0  0  0  0  0  0  0  0  0  0
  141.9420  153.6850  135.5440 N   0  0  0  0  0  0  0  0  0  0  0  0
  141.7180  152.2320  135.4550 C   0  0  0  0  0  0  0  0  0  0  0  0
  142.1680  154.2550  136.8510 C   0  0  0  0  0  0  0  0  0  0  0  0
  143.3480  154.4560  137.2600 O   0  0  0  0  0  0  0  0  0  0  0  0
  141.0770  154.5810  137.6720 O   0  0  0  0  0  0  0  0  0  0  0  0
  140.9920  155.7790  138.4450 C   0  0  0  0  0  0  0  0  0  0  0  0
  141.1170  157.2390  137.3650 P   0  0  0  0  0  0  0  0  0  0  0  0
  139.7960  157.4510  136.6620 O   0  0  0  0  0  0  0  0  0  0  0  0
  141.4880  158.6100  138.2820 O   0  0  0  0  0  0  0  0  0  0  0  0
  142.3320  156.9870  136.2140 O   0  0  0  0  0  0  0  0  0  0  0  0
  146.0640  156.4600  133.3540 C   0  0  0  0  0  0  0  0  0  0  0  0
  146.3510  155.9540  132.2370 O   0  0  0  0  0  0  0  0  0  0  0  0
  145.9820  157.8910  133.4690 N   0  0  0  0  0  0  0  0  0  0  0  0
  146.9900  158.8000  133.3650 C   0  0  0  0  0  0  0  0  0  0  0  0
  148.4320  158.4800  133.3300 C   0  0  0  0  0  0  0  0  0  0  0  0
  148.9400  157.5700  132.3520 N   0  0  0  0  0  0  0  0  0  0  0  0
  149.2310  159.0330  134.1310 O   0  0  0  0  0  0  0  0  0  0  0  0
  146.4860  160.0980  133.4160 C   0  0  0  0  0  0  0  0  0  0  0  0
  145.1250  159.9520  133.5770 C   0  0  0  0  0  0  0  0  0  0  0  0
  144.1280  160.9140  133.7260 C   0  0  0  0  0  0  0  0  0  0  0  0
  142.8040  160.4700  133.8910 C   0  0  0  0  0  0  0  0  0  0  0  0
  142.5030  159.0860  133.8980 C   0  0  0  0  0  0  0  0  0  0  0  0
  141.0920  158.6240  134.1100 C   0  0  0  0  0  0  0  0  0  0  0  0
  143.5430  158.1390  133.7750 C   0  0  0  0  0  0  0  0  0  0  0  0
  144.8490  158.6090  133.6090 C   0  0  0  0  0  0  0  0  0  0  0  0
  150.3936  154.1783  132.7452 H   0  0  0  0  0  0  0  0  0  0  0  0
  150.1812  152.8487  131.5562 H   0  0  0  0  0  0  0  0  0  0  0  0
  149.0487  154.2430  131.5562 H   0  0  0  0  0  0  0  0  0  0  0  0
  148.4845  154.3025  135.1770 H   0  0  0  0  0  0  0  0  0  0  0  0
  148.2407  155.0833  133.5650 H   0  0  0  0  0  0  0  0  0  0  0  0
  146.0169  153.6892  133.5282 H   0  0  0  0  0  0  0  0  0  0  0  0
  146.2905  153.6377  135.3399 H   0  0  0  0  0  0  0  0  0  0  0  0
  146.2977  156.0687  135.4208 H   0  0  0  0  0  0  0  0  0  0  0  0
  144.0010  155.8600  135.7400 H   0  0  0  0  0  0  0  0  0  0  0  0
  141.5864  155.5243  134.6505 H   0  0  0  0  0  0  0  0  0  0  0  0
  140.3164  153.5328  133.5241 H   0  0  0  0  0  0  0  0  0  0  0  0
  140.8926  154.9265  132.5481 H   0  0  0  0  0  0  0  0  0  0  0  0
  141.8173  153.3865  132.5481 H   0  0  0  0  0  0  0  0  0  0  0  0
  141.6527  151.8083  136.4680 H   0  0  0  0  0  0  0  0  0  0  0  0
  140.7794  152.0381  134.9152 H   0  0  0  0  0  0  0  0  0  0  0  0
  142.5547  151.7644  134.9152 H   0  0  0  0  0  0  0  0  0  0  0  0
  140.0283  155.8012  138.9749 H   0  0  0  0  0  0  0  0  0  0  0  0
  141.8206  155.7973  139.1682 H   0  0  0  0  0  0  0  0  0  0  0  0
  148.3090  156.8810  131.8810 H   0  0  0  0  0  0  0  0  0  0  0  0
  147.0529  161.0379  133.3433 H   0  0  0  0  0  0  0  0  0  0  0  0
  144.3691  161.9872  133.7149 H   0  0  0  0  0  0  0  0  0  0  0  0
  141.9946  161.2043  134.0158 H   0  0  0  0  0  0  0  0  0  0  0  0
  140.8864  158.5567  135.1885 H   0  0  0  0  0  0  0  0  0  0  0  0
  140.3979  159.3418  133.6485 H   0  0  0  0  0  0  0  0  0  0  0  0
  140.9568  157.6347  133.6485 H   0  0  0  0  0  0  0  0  0  0  0  0
  143.3312  157.0601  133.8089 H   0  0  0  0  0  0  0  0  0  0  0  0
  1  2  1  0
  2  3  1  0
  3  4  1  0
  4  5  1  0
  5  6  1  0
  6  7  1  0
  7  8  2  0
  7  9  1  0
  9 10  1  0
  9 11  1  0
 11 12  1  0
 11 13  1  0
 13 14  2  0
 13 15  1  0
 15 16  1  0
 16 17  1  0
 17 18  2  0
 17 19  1  0
 17 20  1  0
  5 21  1  0
 21 22  2  0
 21 23  1  0
 23 24  1  0
 24 25  1  0
 25 26  1  0
 25 27  2  0
 24 28  2  0
 28 29  1  0
 29 30  2  0
 30 31  1  0
 31 32  2  0
 32 33  1  0
 32 34  1  0
 34 35  2  0
 35 23  1  0
 35 29  1  0
  1 36  1  0
  1 37  1  0
  1 38  1  0
  3 39  1  0
  3 40  1  0
  4 41  1  0
  4 42  1  0
  5 43  1  1
  6 44  1  0
  9 45  1  1
 10 46  1  0
 10 47  1  0
 10 48  1  0
 12 49  1  0
 12 50  1  0
 12 51  1  0
 16 52  1  0
 16 53  1  0
 26 54  1  0
 28 55  1  0
 30 56  1  0
 31 57  1  0
 33 58  1  0
 33 59  1  0
 33 60  1  0
 34 61  1  0
M  CHG  3  19  -1  20  -1  26  -1
M  END
>  <UniqueID>  (25) 
25

>  <SMILES>  (25) 
CSCC[C@H](NC(=O)[C@@H](C)N(C)C(=O)OCP(=O)([O-])[O-])C(=O)n1c(C([NH-])=O)cc2ccc(C)cc21

>  <Energy>  (25) 
83.90046684840968

>  <Genealogy>  (25) 
CSCC[C@H](NC(=O)C(C)N(C)C(=O)OCP(=O)([O-])[O-])C(=O)n1c(C([NH-])=O)cc2ccc(C)cc21 (protonated)
CSCC[C@H](NC(=O)[C@@H](C)N(C)C(=O)OCP(=O)([O-])[O-])C(=O)n1c(C([NH-])=O)cc2ccc(C)cc21 (chirality)
CSCC[C@H](NC(=O)[C@@H](C)N(C)C(=O)OCP(=O)([O-])[O-])C(=O)n1c(C([NH-])=O)cc2ccc(C)cc21 (3D coordinates assigned)
CSCC[C@H](NC(=O)[C@@H](C)N(C)C(=O)OCP(=O)([O-])[O-])C(=O)n1c(C([NH-])=O)cc2ccc(C)cc21 (optimized conformer: 83.90046684840968 kcal/mol)

>  <smiles>  (25) 
CSCC[C@H](NC(=O)C(C)N(C)C(=O)OCP(=O)(O)O)C(=O)n1c(C(N)=O)cc2ccc(C)cc21

>  <score_type>  (25) 
oracle

>  <origin>  (25) 
adg

>  <m_score__min__energy>  (25) 
-8.6600000000000001

>  <m_primary>  (25) 
energy

$$$$
25:0
     RDKit          3D

 52 54  0  0  0  0  0  0  0  0999 V2000
  141.7780  156.3770  137.2190 C   0  0  0  0  0  0  0  0  0  0  0  0
  142.5640  155.7810  136.1940 O   0  0  0  0  0  0  0  0  0  0  0  0
  143.1950  156.5310  135.1950 C   0  0  0  0  0  0  0  0  0  0  0  0
  143.1490  157.7910  135.2250 O   0  0  0  0  0  0  0  0  0  0  0  0
  143.8970  155.8580  134.1360 N   0  0  0  0  0  0  0  0  0  0  0  0
  143.4340  154.8420  133.3560 C   0  0  0  0  0  0  0  0  0  0  0  0
  142.0460  154.3400  133.3270 C   0  0  0  0  0  0  0  0  0  0  0  0
  141.0060  155.0010  134.0480 N   0  0  0  0  0  0  0  0  0  0  0  0
  141.7620  153.3430  132.6100 O   0  0  0  0  0  0  0  0  0  0  0  0
  144.4390  154.3600  132.5230 C   0  0  0  0  0  0  0  0  0  0  0  0
  145.5430  155.1300  132.8060 C   0  0  0  0  0  0  0  0  0  0  0  0
  146.8260  155.0790  132.2730 C   0  0  0  0  0  0  0  0  0  0  0  0
  147.7840  155.9780  132.7700 C   0  0  0  0  0  0  0  0  0  0  0  0
  147.4490  156.9020  133.7970 C   0  0  0  0  0  0  0  0  0  0  0  0
  148.4170  157.8320  134.3250 N   0  0  0  0  0  0  0  0  0  0  0  0
  148.4670  159.2530  133.9820 C   0  0  0  0  0  0  0  0  0  0  0  0
  147.8170  159.5160  132.6470 C   0  0  0  0  0  0  0  0  0  0  0  0
  148.4700  159.3160  131.5880 O   0  0  0  0  0  0  0  0  0  0  0  0
  146.4440  159.9130  132.5440 N   0  0  0  0  0  0  0  0  0  0  0  0
  145.5800  160.2390  133.6740 C   0  0  0  0  0  0  0  0  0  0  0  0
  144.1750  159.7610  133.4250 C   0  0  0  0  0  0  0  0  0  0  0  0
  143.9900  158.7480  132.7010 O   0  0  0  0  0  0  0  0  0  0  0  0
  143.0370  160.3860  134.0350 N   0  0  0  0  0  0  0  0  0  0  0  0
  141.7180  160.5380  133.4290 C   0  0  0  0  0  0  0  0  0  0  0  0
  140.8810  159.3070  133.6550 C   0  0  0  0  0  0  0  0  0  0  0  0
  140.4510  158.9590  134.9450 C   0  0  0  0  0  0  0  0  0  0  0  0
  139.6840  157.8060  135.1270 C   0  0  0  0  0  0  0  0  0  0  0  0
  139.3500  157.0330  134.0580 N   0  0  0  0  0  0  0  0  0  0  0  0
  139.7450  157.3510  132.7970 C   0  0  0  0  0  0  0  0  0  0  0  0
  140.5170  158.4940  132.5710 C   0  0  0  0  0  0  0  0  0  0  0  0
  146.1360  156.9150  134.3160 C   0  0  0  0  0  0  0  0  0  0  0  0
  145.1940  156.0250  133.7850 C   0  0  0  0  0  0  0  0  0  0  0  0
  142.1708  156.0791  138.2023 H   0  0  0  0  0  0  0  0  0  0  0  0
  141.8203  157.4720  137.1236 H   0  0  0  0  0  0  0  0  0  0  0  0
  140.7350  156.0407  137.1236 H   0  0  0  0  0  0  0  0  0  0  0  0
  141.1770  155.9130  134.5260 H   0  0  0  0  0  0  0  0  0  0  0  0
  140.0370  154.6130  134.0460 H   0  0  0  0  0  0  0  0  0  0  0  0
  144.3662  153.5392  131.7944 H   0  0  0  0  0  0  0  0  0  0  0  0
  147.0834  154.3558  131.4851 H   0  0  0  0  0  0  0  0  0  0  0  0
  148.8047  155.9669  132.3600 H   0  0  0  0  0  0  0  0  0  0  0  0
  149.1310  157.4780  135.0030 H   0  0  0  0  0  0  0  0  0  0  0  0
  147.9392  159.8278  134.7573 H   0  0  0  0  0  0  0  0  0  0  0  0
  149.5217  159.5594  133.9217 H   0  0  0  0  0  0  0  0  0  0  0  0
  145.9715  159.7530  134.5798 H   0  0  0  0  0  0  0  0  0  0  0  0
  145.5641  161.3313  133.8033 H   0  0  0  0  0  0  0  0  0  0  0  0
  141.2124  161.4054  133.8784 H   0  0  0  0  0  0  0  0  0  0  0  0
  141.8423  160.6860  132.3461 H   0  0  0  0  0  0  0  0  0  0  0  0
  140.7161  159.5897  135.8063 H   0  0  0  0  0  0  0  0  0  0  0  0
  139.3495  157.5224  136.1358 H   0  0  0  0  0  0  0  0  0  0  0  0
  139.4566  156.7076  131.9527 H   0  0  0  0  0  0  0  0  0  0  0  0
  140.8367  158.7542  131.5511 H   0  0  0  0  0  0  0  0  0  0  0  0
  145.8584  157.6106  135.1217 H   0  0  0  0  0  0  0  0  0  0  0  0
  1  2  1  0
  2  3  1  0
  3  4  2  0
  3  5  1  0
  5  6  1  0
  6  7  1  0
  7  8  1  0
  7  9  2  0
  6 10  2  0
 10 11  1  0
 11 12  2  0
 12 13  1  0
 13 14  2  0
 14 15  1  0
 15 16  1  0
 16 17  1  0
 17 18  2  0
 17 19  1  0
 19 20  1  0
 20 21  1  0
 21 22  2  0
 21 23  1  0
 23 24  1  0
 24 25  1  0
 25 26  2  0
 26 27  1  0
 27 28  2  0
 28 29  1  0
 29 30  2  0
 14 31  1  0
 31 32  2  0
 32  5  1  0
 32 11  1  0
 30 25  1  0
  1 33  1  0
  1 34  1  0
  1 35  1  0
  8 36  1  0
  8 37  1  0
 10 38  1  0
 12 39  1  0
 13 40  1  0
 15 41  1  0
 16 42  1  0
 16 43  1  0
 20 44  1  0
 20 45  1  0
 24 46  1  0
 24 47  1  0
 26 48  1  0
 27 49  1  0
 29 50  1  0
 30 51  1  0
 31 52  1  0
M  CHG  2  19  -1  23  -1
M  END
>  <UniqueID>  (26) 
26

>  <SMILES>  (26) 
COC(=O)n1c(C(N)=O)cc2ccc(NCC(=O)[N-]CC(=O)[N-]Cc3ccncc3)cc21

>  <Energy>  (26) 
87.44935778679276

>  <Genealogy>  (26) 
COC(=O)n1c(C(N)=O)cc2ccc(NCC(=O)[N-]CC(=O)[N-]Cc3ccncc3)cc21 (protonated)
COC(=O)n1c(C(N)=O)cc2ccc(NCC(=O)[N-]CC(=O)[N-]Cc3ccncc3)cc21 (3D coordinates assigned)
COC(=O)n1c(C(N)=O)cc2ccc(NCC(=O)[N-]CC(=O)[N-]Cc3ccncc3)cc21 (optimized conformer: 87.44935778679276 kcal/mol)

>  <smiles>  (26) 
COC(=O)n1c(C(N)=O)cc2ccc(NCC(=O)NCC(=O)NCc3ccncc3)cc21

>  <score_type>  (26) 
oracle

>  <origin>  (26) 
adg

>  <m_score__min__energy>  (26) 
-8.6699999999999999

>  <m_primary>  (26) 
energy

$$$$
26:0
     RDKit          3D

 48 49  0  0  0  0  0  0  0  0999 V2000
  142.4110  155.3860  135.5950 C   0  0  0  0  0  0  0  0  0  0  0  0
  143.4070  156.3390  135.2920 O   0  0  0  0  0  0  0  0  0  0  0  0
  142.8240  157.5670  134.8800 C   0  0  2  0  0  0  0  0  0  0  0  0
  141.3050  157.3740  134.7870 C   0  0  0  0  0  0  0  0  0  0  0  0
  140.6820  158.5620  134.2090 N   0  0  0  0  0  0  0  0  0  0  0  0
  139.4950  158.6230  133.4030 C   0  0  0  0  0  0  0  0  0  0  0  0
  138.4210  158.1940  133.9140 O   0  0  0  0  0  0  0  0  0  0  0  0
  139.4850  159.1590  131.9730 C   0  0  0  0  0  0  0  0  0  0  0  0
  138.7450  158.1790  131.0300 C   0  0  0  0  0  0  0  0  0  0  0  0
  138.7610  160.5160  131.9320 C   0  0  0  0  0  0  0  0  0  0  0  0
  140.8660  159.3240  131.5030 N   0  0  0  0  0  0  0  0  0  0  0  0
  143.3850  157.9780  133.5380 C   0  0  0  0  0  0  0  0  0  0  0  0
  142.7090  157.7900  132.4920 O   0  0  0  0  0  0  0  0  0  0  0  0
  144.6680  158.6170  133.4340 N   0  0  0  0  0  0  0  0  0  0  0  0
  144.9480  159.9430  133.5190 C   0  0  0  0  0  0  0  0  0  0  0  0
  143.9580  160.9980  133.7350 C   0  0  0  0  0  0  0  0  0  0  0  0
  142.5700  160.6900  133.6570 N   0  0  0  0  0  0  0  0  0  0  0  0
  144.3330  162.1630  134.0290 O   0  0  0  0  0  0  0  0  0  0  0  0
  146.3220  160.1640  133.4910 C   0  0  0  0  0  0  0  0  0  0  0  0
  146.8840  158.9120  133.3700 C   0  0  0  0  0  0  0  0  0  0  0  0
  148.2210  158.5290  133.3130 C   0  0  0  0  0  0  0  0  0  0  0  0
  148.5100  157.1570  133.2140 C   0  0  0  0  0  0  0  0  0  0  0  0
  147.4650  156.1990  133.1480 C   0  0  0  0  0  0  0  0  0  0  0  0
  147.7740  154.7250  133.1020 C   0  0  0  0  0  0  0  0  0  0  0  0
  148.0620  154.2350  134.3660 F   0  0  0  0  0  0  0  0  0  0  0  0
  148.8680  154.4910  132.2860 F   0  0  0  0  0  0  0  0  0  0  0  0
  146.6800  154.0500  132.5950 F   0  0  0  0  0  0  0  0  0  0  0  0
  146.1170  156.6280  133.2310 C   0  0  0  0  0  0  0  0  0  0  0  0
  145.8630  157.9970  133.3420 C   0  0  0  0  0  0  0  0  0  0  0  0
  142.3131  155.2923  136.6866 H   0  0  0  0  0  0  0  0  0  0  0  0
  141.4509  155.7104  135.1673 H   0  0  0  0  0  0  0  0  0  0  0  0
  142.6927  154.4125  135.1673 H   0  0  0  0  0  0  0  0  0  0  0  0
  143.0543  158.3600  135.6068 H   0  0  0  0  0  0  0  0  0  0  0  0
  141.0872  156.5032  134.1511 H   0  0  0  0  0  0  0  0  0  0  0  0
  140.9005  157.2108  135.7968 H   0  0  0  0  0  0  0  0  0  0  0  0
  138.1891  157.4428  131.6292 H   0  0  0  0  0  0  0  0  0  0  0  0
  138.0433  158.7402  130.3954 H   0  0  0  0  0  0  0  0  0  0  0  0
  139.4768  157.6577  130.3954 H   0  0  0  0  0  0  0  0  0  0  0  0
  138.5755  160.8638  132.9590 H   0  0  0  0  0  0  0  0  0  0  0  0
  139.3874  161.2500  131.4039 H   0  0  0  0  0  0  0  0  0  0  0  0
  137.8026  160.4044  131.4039 H   0  0  0  0  0  0  0  0  0  0  0  0
  141.2010  158.4300  131.0740 H   0  0  0  0  0  0  0  0  0  0  0  0
  141.4890  159.5280  132.3170 H   0  0  0  0  0  0  0  0  0  0  0  0
  142.2460  159.7880  133.2470 H   0  0  0  0  0  0  0  0  0  0  0  0
  146.8457  161.1294  133.5522 H   0  0  0  0  0  0  0  0  0  0  0  0
  149.0268  159.2772  133.3445 H   0  0  0  0  0  0  0  0  0  0  0  0
  149.5575  156.8222  133.1874 H   0  0  0  0  0  0  0  0  0  0  0  0
  145.2915  155.9013  133.2086 H   0  0  0  0  0  0  0  0  0  0  0  0
  1  2  1  0
  2  3  1  0
  3  4  1  0
  4  5  1  0
  5  6  1  0
  6  7  2  0
  6  8  1  0
  8  9  1  0
  8 10  1  0
  8 11  1  0
  3 12  1  0
 12 13  2  0
 12 14  1  0
 14 15  1  0
 15 16  1  0
 16 17  1  0
 16 18  2  0
 15 19  2  0
 19 20  1  0
 20 21  2  0
 21 22  1  0
 22 23  2  0
 23 24  1  0
 24 25  1  0
 24 26  1  0
 24 27  1  0
 23 28  1  0
 28 29  2  0
 29 14  1  0
 29 20  1  0
  1 30  1  0
  1 31  1  0
  1 32  1  0
  3 33  1  1
  4 34  1  0
  4 35  1  0
  9 36  1  0
  9 37  1  0
  9 38  1  0
 10 39  1  0
 10 40  1  0
 10 41  1  0
 11 42  1  0
 11 43  1  0
 17 44  1  0
 19 45  1  0
 21 46  1  0
 22 47  1  0
 28 48  1  0
M  CHG  2   5  -1  17  -1
M  END
>  <UniqueID>  (27) 
27

>  <SMILES>  (27) 
CO[C@H](C[N-]C(=O)C(C)(C)N)C(=O)n1c(C([NH-])=O)cc2ccc(C(F)(F)F)cc21

>  <Energy>  (27) 
92.37563309307842

>  <Genealogy>  (27) 
CO[C@H](C[N-]C(=O)C(C)(C)N)C(=O)n1c(C([NH-])=O)cc2ccc(C(F)(F)F)cc21 (protonated)
CO[C@H](C[N-]C(=O)C(C)(C)N)C(=O)n1c(C([NH-])=O)cc2ccc(C(F)(F)F)cc21 (3D coordinates assigned)
CO[C@H](C[N-]C(=O)C(C)(C)N)C(=O)n1c(C([NH-])=O)cc2ccc(C(F)(F)F)cc21 (optimized conformer: 92.37563309307842 kcal/mol)

>  <smiles>  (27) 
CO[C@H](CNC(=O)C(C)(C)N)C(=O)n1c(C(N)=O)cc2ccc(C(F)(F)F)cc21

>  <score_type>  (27) 
oracle

>  <origin>  (27) 
adg

>  <m_score__min__energy>  (27) 
-6.5499999999999998

>  <m_primary>  (27) 
energy

$$$$
27:0
     RDKit          3D

 40 41  0  0  0  0  0  0  0  0999 V2000
  149.2310  162.0260  130.3750 C   0  0  0  0  0  0  0  0  0  0  0  0
  149.0200  160.7220  131.0850 C   0  0  0  0  0  0  0  0  0  0  0  0
  150.0550  159.7570  131.1200 C   0  0  0  0  0  0  0  0  0  0  0  0
  149.8870  158.5530  131.8250 C   0  0  0  0  0  0  0  0  0  0  0  0
  148.6780  158.3470  132.4860 C   0  0  0  0  0  0  0  0  0  0  0  0
  148.2660  157.2890  133.2640 C   0  0  0  0  0  0  0  0  0  0  0  0
  146.9800  157.6190  133.6820 C   0  0  0  0  0  0  0  0  0  0  0  0
  146.1260  156.7090  134.4750 C   0  0  0  0  0  0  0  0  0  0  0  0
  144.7070  156.7810  134.3500 N   0  0  0  0  0  0  0  0  0  0  0  0
  146.6340  155.8990  135.2940 O   0  0  0  0  0  0  0  0  0  0  0  0
  146.6120  158.8370  133.1920 N   0  0  0  0  0  0  0  0  0  0  0  0
  145.4020  159.5640  133.4640 C   0  0  0  0  0  0  0  0  0  0  0  0
  145.4340  160.5980  134.1860 O   0  0  0  0  0  0  0  0  0  0  0  0
  144.1870  159.1090  132.9390 O   0  0  0  0  0  0  0  0  0  0  0  0
  142.9570  159.2070  133.6480 C   0  0  0  0  0  0  0  0  0  0  0  0
  141.9540  158.2710  133.0370 C   0  0  0  0  0  0  0  0  0  0  0  0
  142.3700  157.1630  132.5970 O   0  0  0  0  0  0  0  0  0  0  0  0
  140.5450  158.5880  132.9600 N   0  0  0  0  0  0  0  0  0  0  0  0
  139.5680  157.5120  133.1570 C   0  0  0  0  0  0  0  0  0  0  0  0
  140.0560  159.9300  132.6090 C   0  0  0  0  0  0  0  0  0  0  0  0
  139.0970  159.8490  131.4630 C   0  0  0  0  0  0  0  0  0  0  0  0
  138.0100  160.4840  131.5000 O   0  0  0  0  0  0  0  0  0  0  0  0
  139.4200  159.1010  130.3370 O   0  0  0  0  0  0  0  0  0  0  0  0
  147.6650  159.2690  132.4600 C   0  0  0  0  0  0  0  0  0  0  0  0
  147.8130  160.4850  131.7810 C   0  0  0  0  0  0  0  0  0  0  0  0
  149.3610  162.8295  131.1149 H   0  0  0  0  0  0  0  0  0  0  0  0
  150.1300  161.9590  129.7447 H   0  0  0  0  0  0  0  0  0  0  0  0
  148.3568  162.2459  129.7447 H   0  0  0  0  0  0  0  0  0  0  0  0
  150.9994  159.9513  130.5905 H   0  0  0  0  0  0  0  0  0  0  0  0
  150.6852  157.7967  131.8540 H   0  0  0  0  0  0  0  0  0  0  0  0
  148.8323  156.3771  133.5042 H   0  0  0  0  0  0  0  0  0  0  0  0
  144.2590  157.0400  133.4430 H   0  0  0  0  0  0  0  0  0  0  0  0
  143.1180  158.9356  134.7018 H   0  0  0  0  0  0  0  0  0  0  0  0
  142.5802  160.2388  133.5898 H   0  0  0  0  0  0  0  0  0  0  0  0
  139.4174  157.3461  134.2339 H   0  0  0  0  0  0  0  0  0  0  0  0
  138.6120  157.7952  132.6924 H   0  0  0  0  0  0  0  0  0  0  0  0
  139.9419  156.5877  132.6924 H   0  0  0  0  0  0  0  0  0  0  0  0
  139.5460  160.3696  133.4788 H   0  0  0  0  0  0  0  0  0  0  0  0
  140.9108  160.5577  132.3171 H   0  0  0  0  0  0  0  0  0  0  0  0
  147.0100  161.2367  131.7892 H   0  0  0  0  0  0  0  0  0  0  0  0
  1  2  1  0
  2  3  2  0
  3  4  1  0
  4  5  2  0
  5  6  1  0
  6  7  2  0
  7  8  1  0
  8  9  1  0
  8 10  2  0
  7 11  1  0
 11 12  1  0
 12 13  2  0
 12 14  1  0
 14 15  1  0
 15 16  1  0
 16 17  2  0
 16 18  1  0
 18 19  1  0
 18 20  1  0
 20 21  1  0
 21 22  2  0
 21 23  1  0
 11 24  1  0
 24 25  2  0
 25  2  1  0
 24  5  1  0
  1 26  1  0
  1 27  1  0
  1 28  1  0
  3 29  1  0
  4 30  1  0
  6 31  1  0
  9 32  1  0
 15 33  1  0
 15 34  1  0
 19 35  1  0
 19 36  1  0
 19 37  1  0
 20 38  1  0
 20 39  1  0
 25 40  1  0
M  CHG  2   9  -1  23  -1
M  END
>  <UniqueID>  (28) 
28

>  <SMILES>  (28) 
Cc1ccc2cc(C([NH-])=O)n(C(=O)OCC(=O)N(C)CC(=O)[O-])c2c1

>  <Energy>  (28) 
73.04459413789672

>  <Genealogy>  (28) 
Cc1ccc2cc(C([NH-])=O)n(C(=O)OCC(=O)N(C)CC(=O)[O-])c2c1 (protonated)
Cc1ccc2cc(C([NH-])=O)n(C(=O)OCC(=O)N(C)CC(=O)[O-])c2c1 (3D coordinates assigned)
Cc1ccc2cc(C([NH-])=O)n(C(=O)OCC(=O)N(C)CC(=O)[O-])c2c1 (optimized conformer: 73.04459413789672 kcal/mol)

>  <smiles>  (28) 
Cc1ccc2cc(C(N)=O)n(C(=O)OCC(=O)N(C)CC(=O)O)c2c1

>  <score_type>  (28) 
oracle

>  <origin>  (28) 
adg

>  <m_score__min__energy>  (28) 
-6.71

>  <m_primary>  (28) 
energy

$$$$
28:0
     RDKit          3D

 61 62  0  0  0  0  0  0  0  0999 V2000
  137.3820  158.3310  131.7360 H   0  0  0  0  0  0  0  0  0  0  0  0
  136.4860  158.6400  131.4440 O   0  0  0  0  0  0  0  0  0  0  0  0
  136.6850  159.8020  130.6810 C   0  0  0  0  0  0  0  0  0  0  0  0
  136.4793  160.6821  131.3080 H   0  0  0  0  0  0  0  0  0  0  0  0
  136.0039  159.7717  129.8178 H   0  0  0  0  0  0  0  0  0  0  0  0
  138.1310  159.8860  130.1570 C   0  0  1  0  0  0  0  0  0  0  0  0
  138.1001  160.3254  129.1490 H   0  0  0  0  0  0  0  0  0  0  0  0
  138.9680  160.7690  131.0410 C   0  0  0  0  0  0  0  0  0  0  0  0
  139.0910  161.9980  130.7770 O   0  0  0  0  0  0  0  0  0  0  0  0
  139.5830  160.2280  132.1660 O   0  0  0  0  0  0  0  0  0  0  0  0
  139.0070  159.1910  132.8650 N   0  0  0  0  0  0  0  0  0  0  0  0
  139.5380  157.8670  132.7950 C   0  0  0  0  0  0  0  0  0  0  0  0
  138.9330  157.0000  132.1070 O   0  0  0  0  0  0  0  0  0  0  0  0
  140.7780  157.5220  133.5170 C   0  0  0  0  0  0  0  0  0  0  0  0
  141.5876  157.0184  132.9684 H   0  0  0  0  0  0  0  0  0  0  0  0
  140.9540  157.7990  134.8140 C   0  0  0  0  0  0  0  0  0  0  0  0
  140.1427  158.2888  135.3725 H   0  0  0  0  0  0  0  0  0  0  0  0
  142.2050  157.4650  135.5120 C   0  0  0  0  0  0  0  0  0  0  0  0
  143.2660  158.0710  135.1970 O   0  0  0  0  0  0  0  0  0  0  0  0
  142.2140  156.4840  136.5150 O   0  0  0  0  0  0  0  0  0  0  0  0
  141.8550  155.1210  136.2930 C   0  0  0  0  0  0  0  0  0  0  0  0
  141.4455  155.0177  135.2773 H   0  0  0  0  0  0  0  0  0  0  0  0
  141.1044  154.8296  137.0425 H   0  0  0  0  0  0  0  0  0  0  0  0
  143.0700  154.2040  136.4380 C   0  0  0  0  0  0  0  0  0  0  0  0
  142.8570  153.4448  137.2050 H   0  0  0  0  0  0  0  0  0  0  0  0
  143.9360  154.8168  136.7286 H   0  0  0  0  0  0  0  0  0  0  0  0
  143.3730  153.5490  135.2060 O   0  0  0  0  0  0  0  0  0  0  0  0
  143.3970  154.2030  133.9650 C   0  0  0  0  0  0  0  0  0  0  0  0
  142.3160  154.4640  133.3670 O   0  0  0  0  0  0  0  0  0  0  0  0
  144.6590  154.5910  133.3860 N   0  0  0  0  0  0  0  0  0  0  0  0
  145.7810  154.9730  134.2120 C   0  0  0  0  0  0  0  0  0  0  0  0
  145.8360  154.5910  135.4130 O   0  0  0  0  0  0  0  0  0  0  0  0
  146.8470  155.7840  133.6870 N   0  0  0  0  0  0  0  0  0  0  0  0
  148.0260  155.3550  133.1530 C   0  0  0  0  0  0  0  0  0  0  0  0
  148.5180  153.9630  133.1480 C   0  0  0  0  0  0  0  0  0  0  0  0
  149.6300  153.7030  132.6140 O   0  0  0  0  0  0  0  0  0  0  0  0
  147.7850  152.9140  133.7780 N   0  0  0  0  0  0  0  0  0  0  0  0
  148.1380  151.9310  133.7340 H   0  0  0  0  0  0  0  0  0  0  0  0
  146.9580  153.1150  134.3820 H   0  0  0  0  0  0  0  0  0  0  0  0
  148.7310  156.4250  132.6030 C   0  0  0  0  0  0  0  0  0  0  0  0
  149.7100  156.3915  132.1026 H   0  0  0  0  0  0  0  0  0  0  0  0
  147.9420  157.5320  132.8190 C   0  0  0  0  0  0  0  0  0  0  0  0
  148.1450  158.8610  132.4600 C   0  0  0  0  0  0  0  0  0  0  0  0
  149.0646  159.1748  131.9445 H   0  0  0  0  0  0  0  0  0  0  0  0
  147.1400  159.7890  132.7760 C   0  0  0  0  0  0  0  0  0  0  0  0
  147.2809  160.8508  132.5255 H   0  0  0  0  0  0  0  0  0  0  0  0
  145.9450  159.3710  133.4150 C   0  0  0  0  0  0  0  0  0  0  0  0
  144.8880  160.3730  133.7720 C   0  0  0  0  0  0  0  0  0  0  0  0
  144.8087  160.4481  134.8666 H   0  0  0  0  0  0  0  0  0  0  0  0
  145.1578  161.3548  133.3557 H   0  0  0  0  0  0  0  0  0  0  0  0
  143.9221  160.0511  133.3557 H   0  0  0  0  0  0  0  0  0  0  0  0
  145.7760  158.0150  133.7690 C   0  0  0  0  0  0  0  0  0  0  0  0
  144.8589  157.6725  134.2706 H   0  0  0  0  0  0  0  0  0  0  0  0
  146.8060  157.1180  133.4650 C   0  0  0  0  0  0  0  0  0  0  0  0
  144.7650  154.6750  131.9260 C   0  0  0  0  0  0  0  0  0  0  0  0
  145.6009  155.3374  131.6566 H   0  0  0  0  0  0  0  0  0  0  0  0
  144.9446  153.6714  131.5131 H   0  0  0  0  0  0  0  0  0  0  0  0
  143.8290  155.0793  131.5131 H   0  0  0  0  0  0  0  0  0  0  0  0
  138.7290  158.5540  130.0680 N   0  0  0  0  0  0  0  0  0  0  0  0
  137.9980  157.8470  130.3210 H   0  0  0  0  0  0  0  0  0  0  0  0
  139.4710  158.4750  130.8010 H   0  0  0  0  0  0  0  0  0  0  0  0
  1  2  1  0
  2  3  1  0
  3  4  1  0
  3  5  1  0
  3  6  1  0
  6  7  1  6
  6  8  1  0
  8  9  2  0
  8 10  1  0
 10 11  1  0
 11 12  1  0
 12 13  2  0
 12 14  1  0
 14 15  1  0
 14 16  2  0
 16 17  1  0
 16 18  1  0
 18 19  2  0
 18 20  1  0
 20 21  1  0
 21 22  1  0
 21 23  1  0
 21 24  1  0
 24 25  1  0
 24 26  1  0
 24 27  1  0
 27 28  1  0
 28 29  2  0
 28 30  1  0
 30 31  1  0
 31 32  2  0
 31 33  1  0
 33 34  1  0
 34 35  1  0
 35 36  2  0
 35 37  1  0
 37 38  1  0
 37 39  1  0
 34 40  2  0
 40 41  1  0
 40 42  1  0
 42 43  2  0
 43 44  1  0
 43 45  1  0
 45 46  1  0
 45 47  2  0
 47 48  1  0
 48 49  1  0
 48 50  1  0
 48 51  1  0
 47 52  1  0
 52 53  1  0
 52 54  2  0
 30 55  1  0
 55 56  1  0
 55 57  1  0
 55 58  1  0
  6 59  1  0
 59 60  1  0
 59 61  1  0
 54 33  1  0
 54 42  1  0
M  CHG  1  11  -1
M  END
>  <UniqueID>  (29) 
29

>  <SMILES>  (29) 
Cc1ccc2cc(C(N)=O)n(C(=O)N(C)C(=O)OCCOC(=O)/C=C/C(=O)[N-]OC(=O)[C@@H](N)CO)c2c1

>  <Energy>  (29) 
87.24169863001215

>  <Genealogy>  (29) 
Cc1ccc2cc(C(N)=O)n(C(=O)N(C)C(=O)OCCOC(=O)/C=C/C(=O)[N-]OC(=O)[C@@H](N)CO)c2c1 (protonated)
Cc1ccc2cc(C(N)=O)n(C(=O)N(C)C(=O)OCCOC(=O)/C=C/C(=O)[N-]OC(=O)[C@@H](N)CO)c2c1 (cis-trans isomerization)
Cc1ccc2cc(C(N)=O)n(C(=O)N(C)C(=O)OCCOC(=O)/C=C/C(=O)[N-]OC(=O)[C@@H](N)CO)c2c1 (3D coordinates assigned)
Cc1ccc2cc(C(N)=O)n(C(=O)N(C)C(=O)OCCOC(=O)/C=C/C(=O)[N-]OC(=O)[C@@H](N)CO)c2c1 (optimized conformer: 87.24169863001215 kcal/mol)

>  <smiles>  (29) 
Cc1ccc2cc(C(N)=O)n(C(=O)N(C)C(=O)OCCOC(=O)/C=C/C(=O)NOC(=O)[C@@H](N)CO)c2c1

>  <score_type>  (29) 
oracle

>  <origin>  (29) 
adg

>  <m_score__min__energy>  (29) 
-6.3600000000000003

>  <m_primary>  (29) 
energy

$$$$
29:0
     RDKit          3D

 47 49  0  0  0  0  0  0  0  0999 V2000
  142.8960  161.1810  133.7240 N   0  0  0  0  0  0  0  0  0  0  0  0
  144.2970  161.4190  133.8380 C   0  0  0  0  0  0  0  0  0  0  0  0
  144.7080  162.5930  134.0320 O   0  0  0  0  0  0  0  0  0  0  0  0
  145.2710  160.3190  133.6740 C   0  0  0  0  0  0  0  0  0  0  0  0
  146.6290  160.5270  133.4460 C   0  0  0  0  0  0  0  0  0  0  0  0
  147.1650  159.2730  133.2650 C   0  0  0  0  0  0  0  0  0  0  0  0
  148.4800  158.8890  133.0280 C   0  0  0  0  0  0  0  0  0  0  0  0
  148.7580  157.5160  132.9210 C   0  0  0  0  0  0  0  0  0  0  0  0
  147.7200  156.5550  133.0410 C   0  0  0  0  0  0  0  0  0  0  0  0
  148.0420  155.0830  132.9860 C   0  0  0  0  0  0  0  0  0  0  0  0
  147.0550  154.3930  132.3050 F   0  0  0  0  0  0  0  0  0  0  0  0
  148.1360  154.5560  134.2630 F   0  0  0  0  0  0  0  0  0  0  0  0
  149.2480  154.9050  132.3350 F   0  0  0  0  0  0  0  0  0  0  0  0
  146.4000  156.9860  133.3060 C   0  0  0  0  0  0  0  0  0  0  0  0
  146.1490  158.3610  133.3880 C   0  0  0  0  0  0  0  0  0  0  0  0
  144.9790  158.9880  133.6440 N   0  0  0  0  0  0  0  0  0  0  0  0
  143.7190  158.3610  133.9320 C   0  0  0  0  0  0  0  0  0  0  0  0
  143.1570  157.6450  133.0600 O   0  0  0  0  0  0  0  0  0  0  0  0
  143.1310  158.5330  135.1880 O   0  0  0  0  0  0  0  0  0  0  0  0
  141.7820  158.9590  135.3570 C   0  0  0  0  0  0  0  0  0  0  0  0
  140.8480  158.0280  134.6390 C   0  0  0  0  0  0  0  0  0  0  0  0
  140.6080  156.8970  135.1460 O   0  0  0  0  0  0  0  0  0  0  0  0
  140.2250  158.3930  133.3870 N   0  0  0  0  0  0  0  0  0  0  0  0
  139.0810  157.5980  132.9100 C   0  0  0  0  0  0  0  0  0  0  0  0
  138.4310  158.2190  131.6660 C   0  0  0  0  0  0  0  0  0  0  0  0
  138.2910  159.7370  131.8490 C   0  0  0  0  0  0  0  0  0  0  0  0
  137.5860  160.3370  130.6630 C   0  0  0  0  0  0  0  0  0  0  0  0
  137.9720  160.1000  129.5290 O   0  0  0  0  0  0  0  0  0  0  0  0
  139.6640  160.4240  132.0760 C   0  0  0  0  0  0  0  0  0  0  0  0
  140.7700  159.4520  132.5220 C   0  0  0  0  0  0  0  0  0  0  0  0
  142.5010  160.2240  133.8530 H   0  0  0  0  0  0  0  0  0  0  0  0
  147.1603  161.4897  133.4168 H   0  0  0  0  0  0  0  0  0  0  0  0
  149.2792  159.6381  132.9272 H   0  0  0  0  0  0  0  0  0  0  0  0
  149.7908  157.1821  132.7424 H   0  0  0  0  0  0  0  0  0  0  0  0
  145.5879  156.2571  133.4447 H   0  0  0  0  0  0  0  0  0  0  0  0
  141.5350  158.9655  136.4289 H   0  0  0  0  0  0  0  0  0  0  0  0
  141.6709  159.9703  134.9387 H   0  0  0  0  0  0  0  0  0  0  0  0
  139.4310  156.5855  132.6604 H   0  0  0  0  0  0  0  0  0  0  0  0
  138.3273  157.5710  133.7108 H   0  0  0  0  0  0  0  0  0  0  0  0
  139.0590  158.0145  130.7864 H   0  0  0  0  0  0  0  0  0  0  0  0
  137.4331  157.7791  131.5223 H   0  0  0  0  0  0  0  0  0  0  0  0
  137.6887  159.9118  132.7527 H   0  0  0  0  0  0  0  0  0  0  0  0
  136.7172  160.9935  130.8184 H   0  0  0  0  0  0  0  0  0  0  0  0
  139.9762  160.8981  131.1338 H   0  0  0  0  0  0  0  0  0  0  0  0
  139.5298  161.1555  132.8865 H   0  0  0  0  0  0  0  0  0  0  0  0
  141.2242  158.9914  131.6323 H   0  0  0  0  0  0  0  0  0  0  0  0
  141.5234  160.0161  133.0914 H   0  0  0  0  0  0  0  0  0  0  0  0
  1  2  1  0
  2  3  2  0
  2  4  1  0
  4  5  2  0
  5  6  1  0
  6  7  2  0
  7  8  1  0
  8  9  2  0
  9 10  1  0
 10 11  1  0
 10 12  1  0
 10 13  1  0
  9 14  1  0
 14 15  2  0
 15 16  1  0
 16 17  1  0
 17 18  2  0
 17 19  1  0
 19 20  1  0
 20 21  1  0
 21 22  2  0
 21 23  1  0
 23 24  1  0
 24 25  1  0
 25 26  1  0
 26 27  1  0
 27 28  2  0
 26 29  1  0
 29 30  1  0
 16  4  1  0
 30 23  1  0
 15  6  1  0
  1 31  1  0
  5 32  1  0
  7 33  1  0
  8 34  1  0
 14 35  1  0
 20 36  1  0
 20 37  1  0
 24 38  1  0
 24 39  1  0
 25 40  1  0
 25 41  1  0
 26 42  1  0
 27 43  1  0
 29 44  1  0
 29 45  1  0
 30 46  1  0
 30 47  1  0
M  CHG  1   1  -1
M  END
>  <UniqueID>  (30) 
30

>  <SMILES>  (30) 
[NH-]C(=O)c1cc2ccc(C(F)(F)F)cc2n1C(=O)OCC(=O)N1CCC(C=O)CC1

>  <Energy>  (30) 
88.39996877982858

>  <Genealogy>  (30) 
[NH-]C(=O)c1cc2ccc(C(F)(F)F)cc2n1C(=O)OCC(=O)N1CCC(C=O)CC1 (protonated)
[NH-]C(=O)c1cc2ccc(C(F)(F)F)cc2n1C(=O)OCC(=O)N1CCC(C=O)CC1 (3D coordinates assigned)
[NH-]C(=O)c1cc2ccc(C(F)(F)F)cc2n1C(=O)OCC(=O)N1CCC(C=O)CC1 (nonaromatic ring conformer: 88.39996877982858 kcal/mol)

>  <smiles>  (30) 
NC(=O)c1cc2ccc(C(F)(F)F)cc2n1C(=O)OCC(=O)N1CCC(C=O)CC1

>  <score_type>  (30) 
oracle

>  <origin>  (30) 
adg

>  <m_score__min__energy>  (30) 
-8.0800000000000001

>  <m_primary>  (30) 
energy

$$$$
30:0
     RDKit          3D

 53 54  0  0  0  0  0  0  0  0999 V2000
  148.9750  153.7470  132.5300 C   0  0  0  0  0  0  0  0  0  0  0  0
  148.4030  154.7910  132.7300 C   0  0  0  0  0  0  0  0  0  0  0  0
  147.7290  156.0350  132.9700 C   0  0  0  0  0  0  0  0  0  0  0  0
  148.4800  157.2220  133.1180 C   0  0  0  0  0  0  0  0  0  0  0  0
  147.8350  158.4460  133.3570 C   0  0  0  0  0  0  0  0  0  0  0  0
  146.4460  158.4450  133.4480 C   0  0  0  0  0  0  0  0  0  0  0  0
  145.5750  159.4730  133.7290 C   0  0  0  0  0  0  0  0  0  0  0  0
  144.3080  158.8960  133.7230 C   0  0  0  0  0  0  0  0  0  0  0  0
  143.0630  159.6510  133.9880 C   0  0  0  0  0  0  0  0  0  0  0  0
  142.1090  159.8380  132.9460 N   0  0  0  0  0  0  0  0  0  0  0  0
  142.8260  160.1170  135.1320 O   0  0  0  0  0  0  0  0  0  0  0  0
  144.3900  157.5660  133.4320 N   0  0  0  0  0  0  0  0  0  0  0  0
  143.3110  156.6220  133.3340 C   0  0  0  0  0  0  0  0  0  0  0  0
  142.2890  156.9220  132.6580 O   0  0  0  0  0  0  0  0  0  0  0  0
  143.4440  155.2470  133.9570 C   0  0  2  0  0  0  0  0  0  0  0  0
  142.5950  154.2810  133.1780 C   0  0  0  0  0  0  0  0  0  0  0  0
  143.1250  153.4360  132.4100 O   0  0  0  0  0  0  0  0  0  0  0  0
  141.2090  154.3270  133.2960 O   0  0  0  0  0  0  0  0  0  0  0  0
  143.0710  155.2070  135.4660 C   0  0  2  0  0  0  0  0  0  0  0  0
  142.3560  156.4990  135.9320 C   0  0  0  0  0  0  0  0  0  0  0  0
  140.9030  156.6330  135.4110 C   0  0  0  0  0  0  0  0  0  0  0  0
  140.6810  157.9130  134.7050 N   0  0  2  0  0  0  0  0  0  0  0  0
  140.2570  158.9640  135.6440 C   0  0  0  0  0  0  0  0  0  0  0  0
  139.7020  157.7720  133.6550 C   0  0  0  0  0  0  0  0  0  0  0  0
  138.9030  156.7920  133.6540 O   0  0  0  0  0  0  0  0  0  0  0  0
  139.6580  158.7200  132.6260 O   0  0  0  0  0  0  0  0  0  0  0  0
  138.8150  158.5960  131.4880 C   0  0  0  0  0  0  0  0  0  0  0  0
  144.2550  155.0200  136.2280 O   0  0  0  0  0  0  0  0  0  0  0  0
  145.1540  154.1490  135.5740 C   0  0  0  0  0  0  0  0  0  0  0  0
  145.7070  157.3050  133.2850 C   0  0  0  0  0  0  0  0  0  0  0  0
  146.3220  156.0690  133.0550 C   0  0  0  0  0  0  0  0  0  0  0  0
  149.4963  152.7956  132.3477 H   0  0  0  0  0  0  0  0  0  0  0  0
  149.5771  157.1873  133.0456 H   0  0  0  0  0  0  0  0  0  0  0  0
  148.4097  159.3772  133.4689 H   0  0  0  0  0  0  0  0  0  0  0  0
  145.8266  160.5270  133.9182 H   0  0  0  0  0  0  0  0  0  0  0  0
  141.7920  159.0340  132.3580 H   0  0  0  0  0  0  0  0  0  0  0  0
  144.5054  154.9625  133.9079 H   0  0  0  0  0  0  0  0  0  0  0  0
  142.3704  154.3727  135.6184 H   0  0  0  0  0  0  0  0  0  0  0  0
  142.3319  156.5045  137.0317 H   0  0  0  0  0  0  0  0  0  0  0  0
  142.9236  157.3458  135.5188 H   0  0  0  0  0  0  0  0  0  0  0  0
  140.6973  155.8048  134.7169 H   0  0  0  0  0  0  0  0  0  0  0  0
  140.2279  156.6034  136.2790 H   0  0  0  0  0  0  0  0  0  0  0  0
  141.5830  158.2330  134.2780 H   0  0  0  0  0  0  0  0  0  0  0  0
  140.3989  158.6122  136.6765 H   0  0  0  0  0  0  0  0  0  0  0  0
  140.8605  159.8687  135.4786 H   0  0  0  0  0  0  0  0  0  0  0  0
  139.1947  159.1966  135.4786 H   0  0  0  0  0  0  0  0  0  0  0  0
  137.7762  158.4432  131.8161 H   0  0  0  0  0  0  0  0  0  0  0  0
  138.8775  159.5130  130.8837 H   0  0  0  0  0  0  0  0  0  0  0  0
  139.1390  157.7358  130.8837 H   0  0  0  0  0  0  0  0  0  0  0  0
  145.7323  153.5887  136.3234 H   0  0  0  0  0  0  0  0  0  0  0  0
  144.5900  153.4449  134.9446 H   0  0  0  0  0  0  0  0  0  0  0  0
  145.8399  154.7350  134.9446 H   0  0  0  0  0  0  0  0  0  0  0  0
  145.7255  155.1515  132.9438 H   0  0  0  0  0  0  0  0  0  0  0  0
  1  2  3  0
  2  3  1  0
  3  4  2  0
  4  5  1  0
  5  6  2  0
  6  7  1  0
  7  8  2  0
  8  9  1  0
  9 10  1  0
  9 11  2  0
  8 12  1  0
 12 13  1  0
 13 14  2  0
 13 15  1  0
 15 16  1  0
 16 17  2  0
 16 18  1  0
 15 19  1  0
 19 20  1  0
 20 21  1  0
 21 22  1  0
 22 23  1  0
 22 24  1  0
 24 25  2  0
 24 26  1  0
 26 27  1  0
 19 28  1  0
 28 29  1  0
 12 30  1  0
 30 31  2  0
 31  3  1  0
 30  6  1  0
  1 32  1  0
  4 33  1  0
  5 34  1  0
  7 35  1  0
 10 36  1  0
 15 37  1  1
 19 38  1  6
 20 39  1  0
 20 40  1  0
 21 41  1  0
 21 42  1  0
 22 43  1  6
 23 44  1  0
 23 45  1  0
 23 46  1  0
 27 47  1  0
 27 48  1  0
 27 49  1  0
 29 50  1  0
 29 51  1  0
 29 52  1  0
 31 53  1  0
M  CHG  3  10  -1  18  -1  22   1
M  END
>  <UniqueID>  (31) 
31

>  <SMILES>  (31) 
C#Cc1ccc2cc(C([NH-])=O)n(C(=O)[C@H](C(=O)[O-])[C@H](CC[NH+](C)C(=O)OC)OC)c2c1

>  <Energy>  (31) 
89.80549170708886

>  <Genealogy>  (31) 
C#Cc1ccc2cc(C([NH-])=O)n(C(=O)C(C(=O)[O-])C(CC[NH+](C)C(=O)OC)OC)c2c1 (protonated)
C#Cc1ccc2cc(C([NH-])=O)n(C(=O)[C@H](C(=O)[O-])[C@H](CC[NH+](C)C(=O)OC)OC)c2c1 (chirality)
C#Cc1ccc2cc(C([NH-])=O)n(C(=O)[C@H](C(=O)[O-])[C@H](CC[NH+](C)C(=O)OC)OC)c2c1 (3D coordinates assigned)
C#Cc1ccc2cc(C([NH-])=O)n(C(=O)[C@H](C(=O)[O-])[C@H](CC[NH+](C)C(=O)OC)OC)c2c1 (optimized conformer: 89.80549170708886 kcal/mol)

>  <smiles>  (31) 
C#Cc1ccc2cc(C(N)=O)n(C(=O)C(C(=O)O)C(CCN(C)C(=O)OC)OC)c2c1

>  <score_type>  (31) 
oracle

>  <origin>  (31) 
adg

>  <m_score__min__energy>  (31) 
-6.0700000000000003

>  <m_primary>  (31) 
energy

$$$$
31:0
     RDKit          3D

 34 35  0  0  0  0  0  0  0  0999 V2000
  144.6130  154.9800  135.1310 C   0  0  0  0  0  0  0  0  0  0  0  0
  145.7730  155.2590  134.5310 C   0  0  0  0  0  0  0  0  0  0  0  0
  145.8110  156.1310  133.3320 C   0  0  0  0  0  0  0  0  0  0  0  0
  145.9950  155.6270  132.1910 O   0  0  0  0  0  0  0  0  0  0  0  0
  145.6470  157.5520  133.4480 N   0  0  0  0  0  0  0  0  0  0  0  0
  146.6120  158.5080  133.3540 C   0  0  0  0  0  0  0  0  0  0  0  0
  148.0640  158.2400  133.2240 C   0  0  0  0  0  0  0  0  0  0  0  0
  148.6000  156.9430  133.4940 N   0  0  0  0  0  0  0  0  0  0  0  0
  148.8440  159.1590  132.8580 O   0  0  0  0  0  0  0  0  0  0  0  0
  146.0440  159.7780  133.4560 C   0  0  0  0  0  0  0  0  0  0  0  0
  144.6910  159.5630  133.6010 C   0  0  0  0  0  0  0  0  0  0  0  0
  143.6460  160.4720  133.7290 C   0  0  0  0  0  0  0  0  0  0  0  0
  142.3390  159.9650  133.8370 C   0  0  0  0  0  0  0  0  0  0  0  0
  142.0990  158.5630  133.8050 C   0  0  0  0  0  0  0  0  0  0  0  0
  140.7690  158.0240  133.9060 N   0  0  0  0  0  0  0  0  0  0  0  0
  139.6990  158.3340  132.9630 C   0  0  0  0  0  0  0  0  0  0  0  0
  143.1900  157.6760  133.6700 C   0  0  0  0  0  0  0  0  0  0  0  0
  144.4780  158.2120  133.5850 C   0  0  0  0  0  0  0  0  0  0  0  0
  147.2930  154.5870  135.2250 P   0  0  0  0  0  0  0  0  0  0  0  0
  148.1470  153.9860  134.1310 O   0  0  0  0  0  0  0  0  0  0  0  0
  148.1570  155.8170  135.9980 O   0  0  0  0  0  0  0  0  0  0  0  0
  146.9200  153.3820  136.3520 O   0  0  0  0  0  0  0  0  0  0  0  0
  144.5954  154.3321  136.0198 H   0  0  0  0  0  0  0  0  0  0  0  0
  143.6752  155.3980  134.7364 H   0  0  0  0  0  0  0  0  0  0  0  0
  148.0060  156.1700  133.8630 H   0  0  0  0  0  0  0  0  0  0  0  0
  149.6210  156.7640  133.3640 H   0  0  0  0  0  0  0  0  0  0  0  0
  146.5658  160.7459  133.4268 H   0  0  0  0  0  0  0  0  0  0  0  0
  143.8364  161.5553  133.7453 H   0  0  0  0  0  0  0  0  0  0  0  0
  141.4932  160.6596  133.9474 H   0  0  0  0  0  0  0  0  0  0  0  0
  140.5450  157.3770  134.6960 H   0  0  0  0  0  0  0  0  0  0  0  0
  138.7866  158.5983  133.5177 H   0  0  0  0  0  0  0  0  0  0  0  0
  140.0019  159.1813  132.3303 H   0  0  0  0  0  0  0  0  0  0  0  0
  139.5021  157.4560  132.3303 H   0  0  0  0  0  0  0  0  0  0  0  0
  143.0296  156.5884  133.6326 H   0  0  0  0  0  0  0  0  0  0  0  0
  1  2  2  0
  2  3  1  0
  3  4  2  0
  3  5  1  0
  5  6  1  0
  6  7  1  0
  7  8  1  0
  7  9  2  0
  6 10  2  0
 10 11  1  0
 11 12  2  0
 12 13  1  0
 13 14  2  0
 14 15  1  0
 15 16  1  0
 14 17  1  0
 17 18  2  0
  2 19  1  0
 19 20  2  0
 19 21  1  0
 19 22  1  0
 18  5  1  0
 18 11  1  0
  1 23  1  0
  1 24  1  0
  8 25  1  0
  8 26  1  0
 10 27  1  0
 12 28  1  0
 13 29  1  0
 15 30  1  0
 16 31  1  0
 16 32  1  0
 16 33  1  0
 17 34  1  0
M  CHG  2  21  -1  22  -1
M  END
>  <UniqueID>  (32) 
32

>  <SMILES>  (32) 
C=C(C(=O)n1c(C(N)=O)cc2ccc(NC)cc21)P(=O)([O-])[O-]

>  <Energy>  (32) 
69.53640060185155

>  <Genealogy>  (32) 
C=C(C(=O)n1c(C(N)=O)cc2ccc(NC)cc21)P(=O)([O-])[O-] (protonated)
C=C(C(=O)n1c(C(N)=O)cc2ccc(NC)cc21)P(=O)([O-])[O-] (3D coordinates assigned)
C=C(C(=O)n1c(C(N)=O)cc2ccc(NC)cc21)P(=O)([O-])[O-] (optimized conformer: 69.53640060185155 kcal/mol)

>  <smiles>  (32) 
C=C(C(=O)n1c(C(N)=O)cc2ccc(NC)cc21)P(=O)(O)O

>  <score_type>  (32) 
oracle

>  <origin>  (32) 
adg

>  <m_score__min__energy>  (32) 
-6.5300000000000002

>  <m_primary>  (32) 
energy

$$$$
32:0
     RDKit          3D

 53 56  0  0  0  0  0  0  0  0999 V2000
  148.7910  161.5350  130.7180 C   0  0  0  0  0  0  0  0  0  0  0  0
  148.6540  160.2450  131.4690 C   0  0  0  0  0  0  0  0  0  0  0  0
  149.7490  159.3480  131.5440 C   0  0  0  0  0  0  0  0  0  0  0  0
  149.6180  158.1140  132.2020 C   0  0  0  0  0  0  0  0  0  0  0  0
  148.3850  157.8030  132.7690 C   0  0  0  0  0  0  0  0  0  0  0  0
  147.9750  156.6670  133.4260 C   0  0  0  0  0  0  0  0  0  0  0  0
  146.6380  156.8900  133.7490 C   0  0  0  0  0  0  0  0  0  0  0  0
  145.8220  155.9400  134.5340 C   0  0  0  0  0  0  0  0  0  0  0  0
  144.4560  156.2200  134.8320 N   0  0  0  0  0  0  0  0  0  0  0  0
  146.3500  154.8910  134.9900 O   0  0  0  0  0  0  0  0  0  0  0  0
  146.2350  158.1130  133.3050 N   0  0  0  0  0  0  0  0  0  0  0  0
  144.9120  158.6680  133.3410 C   0  0  0  0  0  0  0  0  0  0  0  0
  144.0090  158.1920  132.6000 O   0  0  0  0  0  0  0  0  0  0  0  0
  144.6270  159.7180  134.2210 O   0  0  0  0  0  0  0  0  0  0  0  0
  143.9610  160.9180  133.8290 C   0  0  0  0  0  0  0  0  0  0  0  0
  142.4280  160.7180  133.7770 C   0  0  0  0  0  0  0  0  0  0  0  0
  141.9350  159.4180  134.3020 N   0  0  1  0  0  0  0  0  0  0  0  0
  141.7340  159.4190  135.7790 C   0  0  0  0  0  0  0  0  0  0  0  0
  140.9910  158.1500  136.2640 C   0  0  1  0  0  0  0  0  0  0  0  0
  139.6360  158.1350  135.5840 C   0  0  0  0  0  0  0  0  0  0  0  0
  140.0590  157.6910  134.2020 C   0  0  1  0  0  0  0  0  0  0  0  0
  140.7720  158.9010  133.5180 C   0  0  0  0  0  0  0  0  0  0  0  0
  140.9450  156.5450  134.4770 N   0  0  0  0  0  0  0  0  0  0  0  0
  141.8010  156.1020  133.3670 C   0  0  0  0  0  0  0  0  0  0  0  0
  141.6540  156.8690  135.7250 C   0  0  0  0  0  0  0  0  0  0  0  0
  147.3170  158.6610  132.7070 C   0  0  0  0  0  0  0  0  0  0  0  0
  147.4130  159.8890  132.0410 C   0  0  0  0  0  0  0  0  0  0  0  0
  148.8794  162.3672  131.4318 H   0  0  0  0  0  0  0  0  0  0  0  0
  149.6902  161.4974  130.0855 H   0  0  0  0  0  0  0  0  0  0  0  0
  147.9040  161.6871  130.0855 H   0  0  0  0  0  0  0  0  0  0  0  0
  150.7097  159.6207  131.0829 H   0  0  0  0  0  0  0  0  0  0  0  0
  150.4642  157.4143  132.2674 H   0  0  0  0  0  0  0  0  0  0  0  0
  148.5748  155.7724  133.6492 H   0  0  0  0  0  0  0  0  0  0  0  0
  143.9910  157.0790  134.4660 H   0  0  0  0  0  0  0  0  0  0  0  0
  144.1946  161.7110  134.5546 H   0  0  0  0  0  0  0  0  0  0  0  0
  144.3094  161.1961  132.8234 H   0  0  0  0  0  0  0  0  0  0  0  0
  141.9611  161.5208  134.3666 H   0  0  0  0  0  0  0  0  0  0  0  0
  142.1567  160.7361  132.7111 H   0  0  0  0  0  0  0  0  0  0  0  0
  142.7280  158.7630  134.1210 H   0  0  0  0  0  0  0  0  0  0  0  0
  142.7167  159.4651  136.2711 H   0  0  0  0  0  0  0  0  0  0  0  0
  141.1182  160.2930  136.0376 H   0  0  0  0  0  0  0  0  0  0  0  0
  140.9745  158.1720  137.3637 H   0  0  0  0  0  0  0  0  0  0  0  0
  138.9484  157.4164  136.0539 H   0  0  0  0  0  0  0  0  0  0  0  0
  139.0807  159.0838  135.6228 H   0  0  0  0  0  0  0  0  0  0  0  0
  139.2538  157.3897  133.5158 H   0  0  0  0  0  0  0  0  0  0  0  0
  141.1314  158.5816  132.5287 H   0  0  0  0  0  0  0  0  0  0  0  0
  140.0370  159.7163  133.4467 H   0  0  0  0  0  0  0  0  0  0  0  0
  142.7100  155.6316  133.7701 H   0  0  0  0  0  0  0  0  0  0  0  0
  141.2540  155.3738  132.7502 H   0  0  0  0  0  0  0  0  0  0  0  0
  142.0796  156.9691  132.7502 H   0  0  0  0  0  0  0  0  0  0  0  0
  141.5477  156.0486  136.4500 H   0  0  0  0  0  0  0  0  0  0  0  0
  142.7310  157.0122  135.5532 H   0  0  0  0  0  0  0  0  0  0  0  0
  146.5440  160.5592  131.9653 H   0  0  0  0  0  0  0  0  0  0  0  0
  1  2  1  0
  2  3  2  0
  3  4  1  0
  4  5  2  0
  5  6  1  0
  6  7  2  0
  7  8  1  0
  8  9  1  0
  8 10  2  0
  7 11  1  0
 11 12  1  0
 12 13  2  0
 12 14  1  0
 14 15  1  0
 15 16  1  0
 16 17  1  0
 17 18  1  0
 18 19  1  0
 19 20  1  0
 20 21  1  0
 21 22  1  0
 21 23  1  0
 23 24  1  0
 23 25  1  0
 11 26  1  0
 26 27  2  0
 27  2  1  0
 26  5  1  0
 22 17  1  0
 25 19  1  0
  1 28  1  0
  1 29  1  0
  1 30  1  0
  3 31  1  0
  4 32  1  0
  6 33  1  0
  9 34  1  0
 15 35  1  0
 15 36  1  0
 16 37  1  0
 16 38  1  0
 17 39  1  1
 18 40  1  0
 18 41  1  0
 19 42  1  1
 20 43  1  0
 20 44  1  0
 21 45  1  6
 22 46  1  0
 22 47  1  0
 24 48  1  0
 24 49  1  0
 24 50  1  0
 25 51  1  0
 25 52  1  0
 27 53  1  0
M  CHG  2   9  -1  17   1
M  END
>  <UniqueID>  (33) 
33

>  <SMILES>  (33) 
Cc1ccc2cc(C([NH-])=O)n(C(=O)OCC[N@@H+]3CC4C[C@@H](CN4C)C3)c2c1

>  <Energy>  (33) 
117.1895714508583

>  <Genealogy>  (33) 
Cc1ccc2cc(C([NH-])=O)n(C(=O)OCC[NH+]3CC4CC(C3)N(C)C4)c2c1 (protonated)
Cc1ccc2cc(C([NH-])=O)n(C(=O)OCC[N@@H+]3CC4C[C@@H](CN4C)C3)c2c1 (chirality)
Cc1ccc2cc(C([NH-])=O)n(C(=O)OCC[N@@H+]3CC4C[C@@H](CN4C)C3)c2c1 (3D coordinates assigned)
Cc1ccc2cc(C([NH-])=O)n(C(=O)OCC[N@@H+]3CC4C[C@@H](CN4C)C3)c2c1 (nonaromatic ring conformer: 117.1895714508583 kcal/mol)

>  <smiles>  (33) 
Cc1ccc2cc(C(N)=O)n(C(=O)OCCN3CC4CC(C3)N(C)C4)c2c1

>  <score_type>  (33) 
oracle

>  <origin>  (33) 
adg

>  <m_score__min__energy>  (33) 
-6.9900000000000002

>  <m_primary>  (33) 
energy

$$$$
33:0
     RDKit          3D

 50 51  0  0  0  0  0  0  0  0999 V2000
  138.3690  157.9060  134.0690 C   0  0  0  0  0  0  0  0  0  0  0  0
  139.4940  156.9140  134.4120 C   0  0  0  0  0  0  0  0  0  0  0  0
  140.3640  157.5100  135.5310 C   0  0  0  0  0  0  0  0  0  0  0  0
  140.3460  156.5790  133.1560 C   0  0  2  0  0  0  0  0  0  0  0  0
  141.1160  155.3430  133.3240 N   0  0  0  0  0  0  0  0  0  0  0  0
  140.7000  154.0120  132.9910 C   0  0  0  0  0  0  0  0  0  0  0  0
  139.5050  153.7890  132.6660 O   0  0  0  0  0  0  0  0  0  0  0  0
  141.6600  152.9370  132.9960 N   0  0  0  0  0  0  0  0  0  0  0  0
  142.9900  153.0080  133.2950 C   0  0  0  0  0  0  0  0  0  0  0  0
  143.7040  154.1850  133.8270 C   0  0  0  0  0  0  0  0  0  0  0  0
  143.6650  155.4400  133.1490 N   0  0  0  0  0  0  0  0  0  0  0  0
  144.3030  154.0990  134.9320 O   0  0  0  0  0  0  0  0  0  0  0  0
  143.6180  151.7910  133.0520 C   0  0  0  0  0  0  0  0  0  0  0  0
  142.6280  150.9520  132.6030 C   0  0  0  0  0  0  0  0  0  0  0  0
  142.7060  149.6280  132.1830 C   0  0  0  0  0  0  0  0  0  0  0  0
  141.5350  149.0150  131.7110 C   0  0  0  0  0  0  0  0  0  0  0  0
  140.3090  149.7280  131.6710 C   0  0  0  0  0  0  0  0  0  0  0  0
  139.0720  149.0820  131.1020 C   0  0  0  0  0  0  0  0  0  0  0  0
  139.0540  149.1880  129.7220 F   0  0  0  0  0  0  0  0  0  0  0  0
  139.0280  147.7400  131.4330 F   0  0  0  0  0  0  0  0  0  0  0  0
  137.9530  149.7090  131.6160 F   0  0  0  0  0  0  0  0  0  0  0  0
  140.2770  151.0810  132.0820 C   0  0  0  0  0  0  0  0  0  0  0  0
  141.4550  151.6640  132.5720 C   0  0  0  0  0  0  0  0  0  0  0  0
  141.2350  157.7170  132.6880 C   0  0  0  0  0  0  0  0  0  0  0  0
  142.4830  157.5430  132.6640 O   0  0  0  0  0  0  0  0  0  0  0  0
  140.7100  158.9980  132.3000 N   0  0  0  0  0  0  0  0  0  0  0  0
  141.1850  160.1850  133.0150 C   0  0  0  0  0  0  0  0  0  0  0  0
  140.0820  159.1600  130.9830 C   0  0  0  0  0  0  0  0  0  0  0  0
  138.7920  159.9120  131.0980 C   0  0  0  0  0  0  0  0  0  0  0  0
  137.7490  159.3300  131.5000 O   0  0  0  0  0  0  0  0  0  0  0  0
  138.7330  161.2530  130.7370 O   0  0  0  0  0  0  0  0  0  0  0  0
  137.9275  158.2953  134.9983 H   0  0  0  0  0  0  0  0  0  0  0  0
  138.7816  158.7396  133.4818 H   0  0  0  0  0  0  0  0  0  0  0  0
  137.5936  157.3923  133.4818 H   0  0  0  0  0  0  0  0  0  0  0  0
  139.0515  155.9699  134.7626 H   0  0  0  0  0  0  0  0  0  0  0  0
  139.9488  157.2256  136.5091 H   0  0  0  0  0  0  0  0  0  0  0  0
  141.3904  157.1244  135.4422 H   0  0  0  0  0  0  0  0  0  0  0  0
  140.3752  158.6063  135.4422 H   0  0  0  0  0  0  0  0  0  0  0  0
  139.6109  156.4196  132.3534 H   0  0  0  0  0  0  0  0  0  0  0  0
  144.2110  156.2520  133.5140 H   0  0  0  0  0  0  0  0  0  0  0  0
  143.0400  155.5830  132.3270 H   0  0  0  0  0  0  0  0  0  0  0  0
  144.6826  151.5513  133.1903 H   0  0  0  0  0  0  0  0  0  0  0  0
  143.6577  149.0776  132.2198 H   0  0  0  0  0  0  0  0  0  0  0  0
  141.5681  147.9703  131.3683 H   0  0  0  0  0  0  0  0  0  0  0  0
  139.3467  151.6645  132.0186 H   0  0  0  0  0  0  0  0  0  0  0  0
  141.1158  160.0121  134.0991 H   0  0  0  0  0  0  0  0  0  0  0  0
  142.2318  160.3834  132.7414 H   0  0  0  0  0  0  0  0  0  0  0  0
  140.5641  161.0508  132.7414 H   0  0  0  0  0  0  0  0  0  0  0  0
  140.7654  159.7149  130.3234 H   0  0  0  0  0  0  0  0  0  0  0  0
  139.8733  158.1634  130.5668 H   0  0  0  0  0  0  0  0  0  0  0  0
  1  2  1  0
  2  3  1  0
  2  4  1  0
  4  5  1  0
  5  6  1  0
  6  7  2  0
  6  8  1  0
  8  9  1  0
  9 10  1  0
 10 11  1  0
 10 12  2  0
  9 13  2  0
 13 14  1  0
 14 15  2  0
 15 16  1  0
 16 17  2  0
 17 18  1  0
 18 19  1  0
 18 20  1  0
 18 21  1  0
 17 22  1  0
 22 23  2  0
  4 24  1  0
 24 25  2  0
 24 26  1  0
 26 27  1  0
 26 28  1  0
 28 29  1  0
 29 30  2  0
 29 31  1  0
 23  8  1  0
 23 14  1  0
  1 32  1  0
  1 33  1  0
  1 34  1  0
  2 35  1  0
  3 36  1  0
  3 37  1  0
  3 38  1  0
  4 39  1  6
 11 40  1  0
 11 41  1  0
 13 42  1  0
 15 43  1  0
 16 44  1  0
 22 45  1  0
 27 46  1  0
 27 47  1  0
 27 48  1  0
 28 49  1  0
 28 50  1  0
M  CHG  2   5  -1  31  -1
M  END
>  <UniqueID>  (34) 
34

>  <SMILES>  (34) 
CC(C)[C@H]([N-]C(=O)n1c(C(N)=O)cc2ccc(C(F)(F)F)cc21)C(=O)N(C)CC(=O)[O-]

>  <Energy>  (34) 
90.1122424262557

>  <Genealogy>  (34) 
CC(C)[C@H]([N-]C(=O)n1c(C(N)=O)cc2ccc(C(F)(F)F)cc21)C(=O)N(C)CC(=O)[O-] (protonated)
CC(C)[C@H]([N-]C(=O)n1c(C(N)=O)cc2ccc(C(F)(F)F)cc21)C(=O)N(C)CC(=O)[O-] (3D coordinates assigned)
CC(C)[C@H]([N-]C(=O)n1c(C(N)=O)cc2ccc(C(F)(F)F)cc21)C(=O)N(C)CC(=O)[O-] (optimized conformer: 90.1122424262557 kcal/mol)

>  <smiles>  (34) 
CC(C)[C@H](NC(=O)n1c(C(N)=O)cc2ccc(C(F)(F)F)cc21)C(=O)N(C)CC(=O)O

>  <score_type>  (34) 
oracle

>  <origin>  (34) 
adg

>  <m_score__min__energy>  (34) 
-8.1199999999999992

>  <m_primary>  (34) 
energy

$$$$
34:0
     RDKit          3D

 68 69  0  0  0  0  0  0  0  0999 V2000
  145.1620  159.9340  133.6760 C   0  0  0  0  0  0  0  0  0  0  0  0
  146.2610  158.9460  133.4230 C   0  0  0  0  0  0  0  0  0  0  0  0
  147.5190  159.3950  132.9550 C   0  0  0  0  0  0  0  0  0  0  0  0
  148.5420  158.4770  132.6670 C   0  0  0  0  0  0  0  0  0  0  0  0
  148.2760  157.1230  132.8500 C   0  0  0  0  0  0  0  0  0  0  0  0
  149.0760  156.0300  132.6170 C   0  0  0  0  0  0  0  0  0  0  0  0
  148.2980  154.9250  132.9530 C   0  0  0  0  0  0  0  0  0  0  0  0
  148.8030  153.5350  132.9220 C   0  0  0  0  0  0  0  0  0  0  0  0
  147.9800  152.4530  133.3630 N   0  0  0  0  0  0  0  0  0  0  0  0
  149.9500  153.2870  132.4690 O   0  0  0  0  0  0  0  0  0  0  0  0
  147.0620  155.3170  133.3770 N   0  0  0  0  0  0  0  0  0  0  0  0
  145.9490  154.4730  133.7310 C   0  0  0  0  0  0  0  0  0  0  0  0
  145.4590  154.5260  134.8910 O   0  0  0  0  0  0  0  0  0  0  0  0
  145.4100  153.5980  132.7860 O   0  0  0  0  0  0  0  0  0  0  0  0
  144.3130  153.9410  131.9460 C   0  0  0  0  0  0  0  0  0  0  0  0
  143.4810  155.0280  132.6250 C   0  0  0  0  0  0  0  0  0  0  0  0
  142.2120  154.4680  133.2810 C   0  0  0  0  0  0  0  0  0  0  0  0
  141.5540  155.4640  134.1430 N   0  0  0  0  0  0  0  0  0  0  0  0
  140.2270  155.9630  133.7740 C   0  0  0  0  0  0  0  0  0  0  0  0
  142.1920  155.8810  135.3710 C   0  0  0  0  0  0  0  0  0  0  0  0
  143.4060  156.2230  135.3570 O   0  0  0  0  0  0  0  0  0  0  0  0
  141.4790  155.8480  136.7000 C   0  0  0  0  0  0  0  0  0  0  0  0
  140.3470  156.8790  136.7830 C   0  0  0  0  0  0  0  0  0  0  0  0
  140.8700  158.2370  136.9790 N   0  0  0  0  0  0  0  0  0  0  0  0
  141.7290  158.5230  138.1330 C   0  0  0  0  0  0  0  0  0  0  0  0
  140.6010  159.2760  136.0190 C   0  0  0  0  0  0  0  0  0  0  0  0
  140.6160  160.4820  136.3850 O   0  0  0  0  0  0  0  0  0  0  0  0
  140.3340  158.9370  134.6840 O   0  0  0  0  0  0  0  0  0  0  0  0
  141.1070  159.3250  133.5370 C   0  0  0  0  0  0  0  0  0  0  0  0
  142.3540  158.4350  133.3830 C   0  0  0  0  0  0  0  0  0  0  0  0
  140.2420  159.2640  132.2650 C   0  0  0  0  0  0  0  0  0  0  0  0
  141.5590  160.7750  133.7660 C   0  0  0  0  0  0  0  0  0  0  0  0
  147.0640  156.6690  133.3060 C   0  0  0  0  0  0  0  0  0  0  0  0
  146.0200  157.5640  133.5810 C   0  0  0  0  0  0  0  0  0  0  0  0
  145.0234  160.0586  134.7601 H   0  0  0  0  0  0  0  0  0  0  0  0
  145.4286  160.9020  133.2268 H   0  0  0  0  0  0  0  0  0  0  0  0
  144.2277  159.5662  133.2268 H   0  0  0  0  0  0  0  0  0  0  0  0
  147.6968  160.4716  132.8157 H   0  0  0  0  0  0  0  0  0  0  0  0
  149.5242  158.8178  132.3076 H   0  0  0  0  0  0  0  0  0  0  0  0
  150.1109  156.0284  132.2443 H   0  0  0  0  0  0  0  0  0  0  0  0
  148.3310  151.4720  133.3050 H   0  0  0  0  0  0  0  0  0  0  0  0
  147.0410  152.6250  133.7810 H   0  0  0  0  0  0  0  0  0  0  0  0
  144.6901  154.3143  130.9824 H   0  0  0  0  0  0  0  0  0  0  0  0
  143.6887  153.0522  131.7721 H   0  0  0  0  0  0  0  0  0  0  0  0
  144.0952  155.5114  133.3991 H   0  0  0  0  0  0  0  0  0  0  0  0
  143.1703  155.7455  131.8513 H   0  0  0  0  0  0  0  0  0  0  0  0
  141.5096  154.1611  132.4920 H   0  0  0  0  0  0  0  0  0  0  0  0
  142.5019  153.6125  133.9087 H   0  0  0  0  0  0  0  0  0  0  0  0
  139.6504  156.1798  134.6853 H   0  0  0  0  0  0  0  0  0  0  0  0
  140.3332  156.8826  133.1798 H   0  0  0  0  0  0  0  0  0  0  0  0
  139.7010  155.2012  133.1798 H   0  0  0  0  0  0  0  0  0  0  0  0
  141.0539  154.8443  136.8478 H   0  0  0  0  0  0  0  0  0  0  0  0
  142.2140  156.0940  137.4806 H   0  0  0  0  0  0  0  0  0  0  0  0
  139.7680  156.8503  135.8482 H   0  0  0  0  0  0  0  0  0  0  0  0
  139.7118  156.6258  137.6446 H   0  0  0  0  0  0  0  0  0  0  0  0
  141.1696  158.3367  139.0616 H   0  0  0  0  0  0  0  0  0  0  0  0
  142.6145  157.8712  138.1014 H   0  0  0  0  0  0  0  0  0  0  0  0
  142.0471  159.5755  138.1014 H   0  0  0  0  0  0  0  0  0  0  0  0
  142.7354  158.1628  134.3782 H   0  0  0  0  0  0  0  0  0  0  0  0
  142.0870  157.5221  132.8304 H   0  0  0  0  0  0  0  0  0  0  0  0
  143.1305  158.9842  132.8304 H   0  0  0  0  0  0  0  0  0  0  0  0
  139.1812  159.1892  132.5462 H   0  0  0  0  0  0  0  0  0  0  0  0
  140.4002  160.1755  131.6699 H   0  0  0  0  0  0  0  0  0  0  0  0
  140.5265  158.3837  131.6699 H   0  0  0  0  0  0  0  0  0  0  0  0
  141.6209  160.9735  134.8462 H   0  0  0  0  0  0  0  0  0  0  0  0
  142.5474  160.9276  133.3079 H   0  0  0  0  0  0  0  0  0  0  0  0
  140.8325  161.4622  133.3079 H   0  0  0  0  0  0  0  0  0  0  0  0
  145.0369  157.1980  133.9119 H   0  0  0  0  0  0  0  0  0  0  0  0
  1  2  1  0
  2  3  2  0
  3  4  1  0
  4  5  2  0
  5  6  1  0
  6  7  2  0
  7  8  1  0
  8  9  1  0
  8 10  2  0
  7 11  1  0
 11 12  1  0
 12 13  2  0
 12 14  1  0
 14 15  1  0
 15 16  1  0
 16 17  1  0
 17 18  1  0
 18 19  1  0
 18 20  1  0
 20 21  2  0
 20 22  1  0
 22 23  1  0
 23 24  1  0
 24 25  1  0
 24 26  1  0
 26 27  2  0
 26 28  1  0
 28 29  1  0
 29 30  1  0
 29 31  1  0
 29 32  1  0
 11 33  1  0
 33 34  2  0
 34  2  1  0
 33  5  1  0
  1 35  1  0
  1 36  1  0
  1 37  1  0
  3 38  1  0
  4 39  1  0
  6 40  1  0
  9 41  1  0
  9 42  1  0
 15 43  1  0
 15 44  1  0
 16 45  1  0
 16 46  1  0
 17 47  1  0
 17 48  1  0
 19 49  1  0
 19 50  1  0
 19 51  1  0
 22 52  1  0
 22 53  1  0
 23 54  1  0
 23 55  1  0
 25 56  1  0
 25 57  1  0
 25 58  1  0
 30 59  1  0
 30 60  1  0
 30 61  1  0
 31 62  1  0
 31 63  1  0
 31 64  1  0
 32 65  1  0
 32 66  1  0
 32 67  1  0
 34 68  1  0
M  END
>  <UniqueID>  (35) 
35

>  <SMILES>  (35) 
Cc1ccc2cc(C(N)=O)n(C(=O)OCCCN(C)C(=O)CCN(C)C(=O)OC(C)(C)C)c2c1

>  <Energy>  (35) 
84.99803960590204

>  <Genealogy>  (35) 
Cc1ccc2cc(C(N)=O)n(C(=O)OCCCN(C)C(=O)CCN(C)C(=O)OC(C)(C)C)c2c1 (3D coordinates assigned)
Cc1ccc2cc(C(N)=O)n(C(=O)OCCCN(C)C(=O)CCN(C)C(=O)OC(C)(C)C)c2c1 (optimized conformer: 84.99803960590204 kcal/mol)

>  <smiles>  (35) 
Cc1ccc2cc(C(N)=O)n(C(=O)OCCCN(C)C(=O)CCN(C)C(=O)OC(C)(C)C)c2c1

>  <score_type>  (35) 
oracle

>  <origin>  (35) 
adg

>  <m_score__min__energy>  (35) 
-8.0399999999999991

>  <m_primary>  (35) 
energy

$$$$
35:0
     RDKit          3D

 46 48  0  0  0  0  0  0  0  0999 V2000
  143.9840  155.2550  132.4690 C   0  0  0  0  0  0  0  0  0  0  0  0
  144.4810  154.5790  133.7620 C   0  0  0  0  0  0  0  0  0  0  0  0
  143.8260  155.2230  134.9990 C   0  0  0  0  0  0  0  0  0  0  0  0
  144.1020  153.0900  133.7190 C   0  0  0  0  0  0  0  0  0  0  0  0
  145.9110  154.6500  133.8500 O   0  0  0  0  0  0  0  0  0  0  0  0
  146.6720  155.8170  134.0210 C   0  0  0  0  0  0  0  0  0  0  0  0
  147.1700  156.1130  135.1400 O   0  0  0  0  0  0  0  0  0  0  0  0
  146.8860  156.7080  132.8720 C   0  0  0  0  0  0  0  0  0  0  0  0
  147.1460  156.2120  131.7430 O   0  0  0  0  0  0  0  0  0  0  0  0
  146.7880  158.1340  133.0190 N   0  0  0  0  0  0  0  0  0  0  0  0
  147.7440  159.0660  132.7540 C   0  0  0  0  0  0  0  0  0  0  0  0
  149.1360  158.7850  132.3430 C   0  0  0  0  0  0  0  0  0  0  0  0
  149.5840  157.4360  132.2300 N   0  0  0  0  0  0  0  0  0  0  0  0
  149.9290  159.7240  132.0690 O   0  0  0  0  0  0  0  0  0  0  0  0
  147.2470  160.3500  132.9770 C   0  0  0  0  0  0  0  0  0  0  0  0
  145.9440  160.1700  133.3870 C   0  0  0  0  0  0  0  0  0  0  0  0
  144.9750  161.1060  133.7330 C   0  0  0  0  0  0  0  0  0  0  0  0
  143.7020  160.6340  134.0960 C   0  0  0  0  0  0  0  0  0  0  0  0
  143.4150  159.2430  134.0980 C   0  0  0  0  0  0  0  0  0  0  0  0
  142.0650  158.7520  134.4780 C   0  0  0  0  0  0  0  0  0  0  0  0
  141.3520  159.3490  135.5330 C   0  0  0  0  0  0  0  0  0  0  0  0
  140.1180  158.8930  135.8740 N   0  0  0  0  0  0  0  0  0  0  0  0
  139.5320  157.8550  135.2220 C   0  0  0  0  0  0  0  0  0  0  0  0
  140.1990  157.2260  134.1660 C   0  0  0  0  0  0  0  0  0  0  0  0
  139.5870  156.1220  133.4740 C   0  0  0  0  0  0  0  0  0  0  0  0
  139.0950  155.2350  132.9180 N   0  0  0  0  0  0  0  0  0  0  0  0
  141.4700  157.6780  133.7950 C   0  0  0  0  0  0  0  0  0  0  0  0
  144.4280  158.3260  133.7330 C   0  0  0  0  0  0  0  0  0  0  0  0
  145.6910  158.8240  133.4000 C   0  0  0  0  0  0  0  0  0  0  0  0
  143.3504  156.1167  132.7260 H   0  0  0  0  0  0  0  0  0  0  0  0
  144.8470  155.5974  131.8791 H   0  0  0  0  0  0  0  0  0  0  0  0
  143.3998  154.5333  131.8791 H   0  0  0  0  0  0  0  0  0  0  0  0
  144.2638  154.7925  135.9117 H   0  0  0  0  0  0  0  0  0  0  0  0
  144.0030  156.3086  134.9842 H   0  0  0  0  0  0  0  0  0  0  0  0
  142.7436  155.0277  134.9842 H   0  0  0  0  0  0  0  0  0  0  0  0
  144.0044  152.7067  134.7454 H   0  0  0  0  0  0  0  0  0  0  0  0
  143.1448  152.9704  133.1904 H   0  0  0  0  0  0  0  0  0  0  0  0
  144.8856  152.5273  133.1904 H   0  0  0  0  0  0  0  0  0  0  0  0
  149.1800  156.7950  131.5110 H   0  0  0  0  0  0  0  0  0  0  0  0
  147.7815  161.3033  132.8521 H   0  0  0  0  0  0  0  0  0  0  0  0
  145.1983  162.1830  133.7228 H   0  0  0  0  0  0  0  0  0  0  0  0
  142.9182  161.3508  134.3821 H   0  0  0  0  0  0  0  0  0  0  0  0
  141.7959  160.1902  136.0856 H   0  0  0  0  0  0  0  0  0  0  0  0
  138.5326  157.5093  135.5248 H   0  0  0  0  0  0  0  0  0  0  0  0
  142.0050  157.1912  132.9663 H   0  0  0  0  0  0  0  0  0  0  0  0
  144.2265  157.2448  133.7116 H   0  0  0  0  0  0  0  0  0  0  0  0
  1  2  1  0
  2  3  1  0
  2  4  1  0
  2  5  1  0
  5  6  1  0
  6  7  2  0
  6  8  1  0
  8  9  2  0
  8 10  1  0
 10 11  1  0
 11 12  1  0
 12 13  1  0
 12 14  2  0
 11 15  2  0
 15 16  1  0
 16 17  2  0
 17 18  1  0
 18 19  2  0
 19 20  1  0
 20 21  2  0
 21 22  1  0
 22 23  2  0
 23 24  1  0
 24 25  1  0
 25 26  3  0
 24 27  2  0
 19 28  1  0
 28 29  2  0
 29 10  1  0
 29 16  1  0
 27 20  1  0
  1 30  1  0
  1 31  1  0
  1 32  1  0
  3 33  1  0
  3 34  1  0
  3 35  1  0
  4 36  1  0
  4 37  1  0
  4 38  1  0
 13 39  1  0
 15 40  1  0
 17 41  1  0
 18 42  1  0
 21 43  1  0
 23 44  1  0
 27 45  1  0
 28 46  1  0
M  CHG  1  13  -1
M  END
>  <UniqueID>  (36) 
36

>  <SMILES>  (36) 
CC(C)(C)OC(=O)C(=O)n1c(C([NH-])=O)cc2ccc(-c3cncc(C#N)c3)cc21

>  <Energy>  (36) 
87.16145483312594

>  <Genealogy>  (36) 
CC(C)(C)OC(=O)C(=O)n1c(C([NH-])=O)cc2ccc(-c3cncc(C#N)c3)cc21 (protonated)
CC(C)(C)OC(=O)C(=O)n1c(C([NH-])=O)cc2ccc(-c3cncc(C#N)c3)cc21 (3D coordinates assigned)
CC(C)(C)OC(=O)C(=O)n1c(C([NH-])=O)cc2ccc(-c3cncc(C#N)c3)cc21 (optimized conformer: 87.16145483312594 kcal/mol)

>  <smiles>  (36) 
CC(C)(C)OC(=O)C(=O)n1c(C(N)=O)cc2ccc(-c3cncc(C#N)c3)cc21

>  <score_type>  (36) 
oracle

>  <origin>  (36) 
adg

>  <m_score__min__energy>  (36) 
-8.7300000000000004

>  <m_primary>  (36) 
energy

$$$$
36:0
     RDKit          3D

 47 48  0  0  0  0  0  0  0  0999 V2000
  148.4270  155.8840  132.9870 C   0  0  0  0  0  0  0  0  0  0  0  0
  147.5580  157.0820  133.2220 C   0  0  0  0  0  0  0  0  0  0  0  0
  148.1050  158.3860  133.1240 C   0  0  0  0  0  0  0  0  0  0  0  0
  147.2880  159.5200  133.2940 C   0  0  0  0  0  0  0  0  0  0  0  0
  145.9330  159.3160  133.5490 C   0  0  0  0  0  0  0  0  0  0  0  0
  144.9170  160.2250  133.7400 C   0  0  0  0  0  0  0  0  0  0  0  0
  143.7690  159.4590  133.9420 C   0  0  0  0  0  0  0  0  0  0  0  0
  142.4130  160.0300  134.0940 C   0  0  0  0  0  0  0  0  0  0  0  0
  141.6940  160.5260  132.9680 N   0  0  0  0  0  0  0  0  0  0  0  0
  141.8900  160.1020  135.2390 O   0  0  0  0  0  0  0  0  0  0  0  0
  144.0730  158.1310  133.9070 N   0  0  0  0  0  0  0  0  0  0  0  0
  143.1820  157.0150  134.0540 C   0  0  0  0  0  0  0  0  0  0  0  0
  143.3400  156.0160  133.3000 O   0  0  0  0  0  0  0  0  0  0  0  0
  142.1150  157.0250  135.0360 N   0  0  0  0  0  0  0  0  0  0  0  0
  142.3340  156.3760  136.3410 C   0  0  0  0  0  0  0  0  0  0  0  0
  141.4250  156.9420  137.3910 C   0  0  0  0  0  0  0  0  0  0  0  0
  141.5590  158.2970  137.8080 N   0  0  0  0  0  0  0  0  0  0  0  0
  140.5440  156.2130  137.9190 O   0  0  0  0  0  0  0  0  0  0  0  0
  140.7630  157.4950  134.6760 C   0  0  0  0  0  0  0  0  0  0  0  0
  140.3860  157.1980  133.2040 C   0  0  2  0  0  0  0  0  0  0  0  0
  141.2240  157.8710  132.3000 O   0  0  0  0  0  0  0  0  0  0  0  0
  138.9060  157.4870  132.9010 C   0  0  0  0  0  0  0  0  0  0  0  0
  138.7560  157.7750  131.5310 O   0  0  0  0  0  0  0  0  0  0  0  0
  138.9850  159.4500  131.2940 P   0  0  2  0  0  0  0  0  0  0  0  0
  139.1550  160.1630  132.6160 O   0  0  0  0  0  0  0  0  0  0  0  0
  137.6510  160.0900  130.4740 O   0  0  0  0  0  0  0  0  0  0  0  0
  140.3760  159.6900  130.3630 O   0  0  0  0  0  0  0  0  0  0  0  0
  145.3940  158.0600  133.6420 C   0  0  0  0  0  0  0  0  0  0  0  0
  146.1790  156.9160  133.4720 C   0  0  0  0  0  0  0  0  0  0  0  0
  148.7351  155.4592  133.9538 H   0  0  0  0  0  0  0  0  0  0  0  0
  147.8649  155.1293  132.4174 H   0  0  0  0  0  0  0  0  0  0  0  0
  149.3189  156.1841  132.4174 H   0  0  0  0  0  0  0  0  0  0  0  0
  149.1771  158.5131  132.9133 H   0  0  0  0  0  0  0  0  0  0  0  0
  147.7060  160.5353  133.2277 H   0  0  0  0  0  0  0  0  0  0  0  0
  144.9941  161.3223  133.7345 H   0  0  0  0  0  0  0  0  0  0  0  0
  141.3090  159.8750  132.2480 H   0  0  0  0  0  0  0  0  0  0  0  0
  142.1394  155.2979  136.2421 H   0  0  0  0  0  0  0  0  0  0  0  0
  143.3745  156.5574  136.6484 H   0  0  0  0  0  0  0  0  0  0  0  0
  141.7370  159.0550  137.1140 H   0  0  0  0  0  0  0  0  0  0  0  0
  140.0335  156.9964  135.3312 H   0  0  0  0  0  0  0  0  0  0  0  0
  140.7524  158.5877  134.8021 H   0  0  0  0  0  0  0  0  0  0  0  0
  140.5395  156.1176  133.0655 H   0  0  0  0  0  0  0  0  0  0  0  0
  140.8080  158.7480  132.0950 H   0  0  0  0  0  0  0  0  0  0  0  0
  138.2999  156.6061  133.1592 H   0  0  0  0  0  0  0  0  0  0  0  0
  138.5710  158.3493  133.4962 H   0  0  0  0  0  0  0  0  0  0  0  0
  141.1250  159.6370  131.0080 H   0  0  0  0  0  0  0  0  0  0  0  0
  145.7333  155.9121  133.5316 H   0  0  0  0  0  0  0  0  0  0  0  0
  1  2  1  0
  2  3  2  0
  3  4  1  0
  4  5  2  0
  5  6  1  0
  6  7  2  0
  7  8  1  0
  8  9  1  0
  8 10  2  0
  7 11  1  0
 11 12  1  0
 12 13  2  0
 12 14  1  0
 14 15  1  0
 15 16  1  0
 16 17  1  0
 16 18  2  0
 14 19  1  0
 19 20  1  0
 20 21  1  0
 20 22  1  0
 22 23  1  0
 23 24  1  0
 24 25  2  0
 24 26  1  6
 24 27  1  0
 11 28  1  0
 28 29  2  0
 29  2  1  0
 28  5  1  0
  1 30  1  0
  1 31  1  0
  1 32  1  0
  3 33  1  0
  4 34  1  0
  6 35  1  0
  9 36  1  0
 15 37  1  0
 15 38  1  0
 17 39  1  0
 19 40  1  0
 19 41  1  0
 20 42  1  6
 21 43  1  0
 22 44  1  0
 22 45  1  0
 27 46  1  0
 29 47  1  0
M  CHG  3   9  -1  17  -1  26  -1
M  END
>  <UniqueID>  (37) 
37

>  <SMILES>  (37) 
Cc1ccc2cc(C([NH-])=O)n(C(=O)N(CC([NH-])=O)C[C@H](O)CO[P@](=O)([O-])O)c2c1

>  <Energy>  (37) 
82.4786304027356

>  <Genealogy>  (37) 
Cc1ccc2cc(C([NH-])=O)n(C(=O)N(CC([NH-])=O)CC(O)COP(=O)([O-])O)c2c1 (protonated)
Cc1ccc2cc(C([NH-])=O)n(C(=O)N(CC([NH-])=O)C[C@H](O)CO[P@](=O)([O-])O)c2c1 (chirality)
Cc1ccc2cc(C([NH-])=O)n(C(=O)N(CC([NH-])=O)C[C@H](O)CO[P@](=O)([O-])O)c2c1 (3D coordinates assigned)
Cc1ccc2cc(C([NH-])=O)n(C(=O)N(CC([NH-])=O)C[C@H](O)CO[P@](=O)([O-])O)c2c1 (optimized conformer: 82.4786304027356 kcal/mol)

>  <smiles>  (37) 
Cc1ccc2cc(C(N)=O)n(C(=O)N(CC(N)=O)CC(O)COP(=O)(O)O)c2c1

>  <score_type>  (37) 
oracle

>  <origin>  (37) 
adg

>  <m_score__min__energy>  (37) 
-6.1699999999999999

>  <m_primary>  (37) 
energy

$$$$
37:0
     RDKit          3D

 34 35  0  0  0  0  0  0  0  0999 V2000
  148.1560  155.0790  132.7300 C   0  0  0  0  0  0  0  0  0  0  0  0
  147.8320  156.5310  132.9240 C   0  0  0  0  0  0  0  0  0  0  0  0
  148.8560  157.5020  132.8030 C   0  0  0  0  0  0  0  0  0  0  0  0
  148.5650  158.8700  132.9470 C   0  0  0  0  0  0  0  0  0  0  0  0
  147.2480  159.2320  133.2080 C   0  0  0  0  0  0  0  0  0  0  0  0
  146.6880  160.4810  133.3520 C   0  0  0  0  0  0  0  0  0  0  0  0
  145.3330  160.2510  133.5730 C   0  0  0  0  0  0  0  0  0  0  0  0
  144.3600  161.3300  133.8390 C   0  0  0  0  0  0  0  0  0  0  0  0
  142.9530  161.0860  133.7910 N   0  0  0  0  0  0  0  0  0  0  0  0
  144.7800  162.4740  134.1670 O   0  0  0  0  0  0  0  0  0  0  0  0
  145.0600  158.9150  133.5560 N   0  0  0  0  0  0  0  0  0  0  0  0
  143.7710  158.2830  133.6350 C   0  0  0  0  0  0  0  0  0  0  0  0
  143.2850  157.7200  132.6170 O   0  0  0  0  0  0  0  0  0  0  0  0
  143.0420  158.2950  134.8630 N   0  0  0  0  0  0  0  0  0  0  0  0
  141.3530  158.6660  134.9430 S   0  0  0  0  0  0  0  0  0  0  0  0
  141.1880  160.1110  135.3200 O   0  0  0  0  0  0  0  0  0  0  0  0
  140.6950  157.8090  135.9890 O   0  0  0  0  0  0  0  0  0  0  0  0
  140.6110  158.3730  133.3510 C   0  0  0  0  0  0  0  0  0  0  0  0
  139.9640  159.6200  132.8450 C   0  0  0  0  0  0  0  0  0  0  0  0
  138.8020  159.5790  132.3600 O   0  0  0  0  0  0  0  0  0  0  0  0
  140.6270  160.8360  132.9410 O   0  0  0  0  0  0  0  0  0  0  0  0
  146.2450  158.3030  133.3310 C   0  0  0  0  0  0  0  0  0  0  0  0
  146.5030  156.9370  133.1690 C   0  0  0  0  0  0  0  0  0  0  0  0
  148.2644  154.5933  133.7110 H   0  0  0  0  0  0  0  0  0  0  0  0
  147.3440  154.5940  132.1684 H   0  0  0  0  0  0  0  0  0  0  0  0
  149.0972  154.9852  132.1684 H   0  0  0  0  0  0  0  0  0  0  0  0
  149.8879  157.1831  132.5945 H   0  0  0  0  0  0  0  0  0  0  0  0
  149.3547  159.6303  132.8560 H   0  0  0  0  0  0  0  0  0  0  0  0
  147.2012  161.4527  133.3030 H   0  0  0  0  0  0  0  0  0  0  0  0
  142.2800  161.8720  133.9350 H   0  0  0  0  0  0  0  0  0  0  0  0
  142.5780  160.1190  133.6810 H   0  0  0  0  0  0  0  0  0  0  0  0
  141.3883  158.0535  132.6413 H   0  0  0  0  0  0  0  0  0  0  0  0
  139.8470  157.5879  133.4506 H   0  0  0  0  0  0  0  0  0  0  0  0
  145.6902  156.1984  133.2311 H   0  0  0  0  0  0  0  0  0  0  0  0
  1  2  1  0
  2  3  2  0
  3  4  1  0
  4  5  2  0
  5  6  1  0
  6  7  2  0
  7  8  1  0
  8  9  1  0
  8 10  2  0
  7 11  1  0
 11 12  1  0
 12 13  2  0
 12 14  1  0
 14 15  1  0
 15 16  2  0
 15 17  2  0
 15 18  1  0
 18 19  1  0
 19 20  2  0
 19 21  1  0
 11 22  1  0
 22 23  2  0
 23  2  1  0
 22  5  1  0
  1 24  1  0
  1 25  1  0
  1 26  1  0
  3 27  1  0
  4 28  1  0
  6 29  1  0
  9 30  1  0
  9 31  1  0
 18 32  1  0
 18 33  1  0
 23 34  1  0
M  CHG  2  14  -1  21  -1
M  END
>  <UniqueID>  (38) 
38

>  <SMILES>  (38) 
Cc1ccc2cc(C(N)=O)n(C(=O)[N-]S(=O)(=O)CC(=O)[O-])c2c1

>  <Energy>  (38) 
69.63263012300041

>  <Genealogy>  (38) 
Cc1ccc2cc(C(N)=O)n(C(=O)[N-]S(=O)(=O)CC(=O)[O-])c2c1 (protonated)
Cc1ccc2cc(C(N)=O)n(C(=O)[N-]S(=O)(=O)CC(=O)[O-])c2c1 (3D coordinates assigned)
Cc1ccc2cc(C(N)=O)n(C(=O)[N-]S(=O)(=O)CC(=O)[O-])c2c1 (optimized conformer: 69.63263012300041 kcal/mol)

>  <smiles>  (38) 
Cc1ccc2cc(C(N)=O)n(C(=O)NS(=O)(=O)CC(=O)O)c2c1

>  <score_type>  (38) 
oracle

>  <origin>  (38) 
adg

>  <m_score__min__energy>  (38) 
-6.7999999999999998

>  <m_primary>  (38) 
energy

$$$$
38:0
     RDKit          3D

 49 50  0  0  0  0  0  0  0  0999 V2000
  141.4170  149.4110  132.5640 C   0  0  0  0  0  0  0  0  0  0  0  0
  140.5970  150.6140  132.7800 N   0  0  0  0  0  0  0  0  0  0  0  0
  139.4630  150.6070  131.8370 C   0  0  0  0  0  0  0  0  0  0  0  0
  141.4290  151.8260  132.5980 C   0  0  0  0  0  0  0  0  0  0  0  0
  140.6630  153.1030  132.9700 C   0  0  0  0  0  0  0  0  0  0  0  0
  141.5840  154.1830  133.5560 C   0  0  0  0  0  0  0  0  0  0  0  0
  140.9510  155.5030  133.4340 N   0  0  0  0  0  0  0  0  0  0  0  0
  139.5190  155.5890  133.1090 C   0  0  0  0  0  0  0  0  0  0  0  0
  139.1010  157.0240  133.0300 C   0  0  0  0  0  0  0  0  0  0  0  0
  138.7280  157.6410  134.0650 O   0  0  0  0  0  0  0  0  0  0  0  0
  139.1120  157.6790  131.8010 O   0  0  0  0  0  0  0  0  0  0  0  0
  141.7370  156.7060  133.5480 C   0  0  0  0  0  0  0  0  0  0  0  0
  142.4980  157.0560  132.6050 O   0  0  0  0  0  0  0  0  0  0  0  0
  141.6280  157.5460  134.7050 N   0  0  0  0  0  0  0  0  0  0  0  0
  141.6300  158.9050  134.7320 C   0  0  0  0  0  0  0  0  0  0  0  0
  141.8080  159.7820  133.5550 C   0  0  0  0  0  0  0  0  0  0  0  0
  141.2460  159.4270  132.2880 N   0  0  0  0  0  0  0  0  0  0  0  0
  142.4340  160.8700  133.6650 O   0  0  0  0  0  0  0  0  0  0  0  0
  141.5160  159.3640  136.0460 C   0  0  0  0  0  0  0  0  0  0  0  0
  141.4570  158.2290  136.8250 C   0  0  0  0  0  0  0  0  0  0  0  0
  141.3590  158.0920  138.2070 C   0  0  0  0  0  0  0  0  0  0  0  0
  141.3110  156.7900  138.7380 C   0  0  0  0  0  0  0  0  0  0  0  0
  141.3880  155.6550  137.8860 C   0  0  0  0  0  0  0  0  0  0  0  0
  141.2570  154.2660  138.4560 C   0  0  0  0  0  0  0  0  0  0  0  0
  139.9350  153.9790  138.7450 F   0  0  0  0  0  0  0  0  0  0  0  0
  141.9920  154.1440  139.6230 F   0  0  0  0  0  0  0  0  0  0  0  0
  141.7250  153.3510  137.5310 F   0  0  0  0  0  0  0  0  0  0  0  0
  141.4950  155.8400  136.4870 C   0  0  0  0  0  0  0  0  0  0  0  0
  141.5270  157.1450  135.9900 C   0  0  0  0  0  0  0  0  0  0  0  0
  141.7070  148.9855  133.5360 H   0  0  0  0  0  0  0  0  0  0  0  0
  140.8363  148.6683  131.9973 H   0  0  0  0  0  0  0  0  0  0  0  0
  142.3206  149.6800  131.9973 H   0  0  0  0  0  0  0  0  0  0  0  0
  138.5180  150.6012  132.4000 H   0  0  0  0  0  0  0  0  0  0  0  0
  139.5071  151.5054  131.2039 H   0  0  0  0  0  0  0  0  0  0  0  0
  139.5182  149.7092  131.2039 H   0  0  0  0  0  0  0  0  0  0  0  0
  142.3200  151.7459  133.2380 H   0  0  0  0  0  0  0  0  0  0  0  0
  141.7100  151.8922  131.5366 H   0  0  0  0  0  0  0  0  0  0  0  0
  140.1798  153.5021  132.0660 H   0  0  0  0  0  0  0  0  0  0  0  0
  139.9209  152.8395  133.7380 H   0  0  0  0  0  0  0  0  0  0  0  0
  141.7710  153.9654  134.6179 H   0  0  0  0  0  0  0  0  0  0  0  0
  142.5348  154.1859  133.0028 H   0  0  0  0  0  0  0  0  0  0  0  0
  139.3347  155.1014  132.1404 H   0  0  0  0  0  0  0  0  0  0  0  0
  138.9378  155.0847  133.8951 H   0  0  0  0  0  0  0  0  0  0  0  0
  140.9170  158.4540  132.1060 H   0  0  0  0  0  0  0  0  0  0  0  0
  141.3380  160.0810  131.4780 H   0  0  0  0  0  0  0  0  0  0  0  0
  141.4808  160.4093  136.3867 H   0  0  0  0  0  0  0  0  0  0  0  0
  141.3203  158.9740  138.8632 H   0  0  0  0  0  0  0  0  0  0  0  0
  141.2128  156.6489  139.8245 H   0  0  0  0  0  0  0  0  0  0  0  0
  141.5516  154.9769  135.8074 H   0  0  0  0  0  0  0  0  0  0  0  0
  1  2  1  0
  2  3  1  0
  2  4  1  0
  4  5  1  0
  5  6  1  0
  6  7  1  0
  7  8  1  0
  8  9  1  0
  9 10  2  0
  9 11  1  0
  7 12  1  0
 12 13  2  0
 12 14  1  0
 14 15  1  0
 15 16  1  0
 16 17  1  0
 16 18  2  0
 15 19  2  0
 19 20  1  0
 20 21  2  0
 21 22  1  0
 22 23  2  0
 23 24  1  0
 24 25  1  0
 24 26  1  0
 24 27  1  0
 23 28  1  0
 28 29  2  0
 29 14  1  0
 29 20  1  0
  1 30  1  0
  1 31  1  0
  1 32  1  0
  3 33  1  0
  3 34  1  0
  3 35  1  0
  4 36  1  0
  4 37  1  0
  5 38  1  0
  5 39  1  0
  6 40  1  0
  6 41  1  0
  8 42  1  0
  8 43  1  0
 17 44  1  0
 17 45  1  0
 19 46  1  0
 21 47  1  0
 22 48  1  0
 28 49  1  0
M  CHG  1  11  -1
M  END
>  <UniqueID>  (39) 
39

>  <SMILES>  (39) 
CN(C)CCCN(CC(=O)[O-])C(=O)n1c(C(N)=O)cc2ccc(C(F)(F)F)cc21

>  <Energy>  (39) 
86.4862644751537

>  <Genealogy>  (39) 
CN(C)CCCN(CC(=O)[O-])C(=O)n1c(C(N)=O)cc2ccc(C(F)(F)F)cc21 (protonated)
CN(C)CCCN(CC(=O)[O-])C(=O)n1c(C(N)=O)cc2ccc(C(F)(F)F)cc21 (3D coordinates assigned)
CN(C)CCCN(CC(=O)[O-])C(=O)n1c(C(N)=O)cc2ccc(C(F)(F)F)cc21 (optimized conformer: 86.4862644751537 kcal/mol)

>  <smiles>  (39) 
CN(C)CCCN(CC(=O)O)C(=O)n1c(C(N)=O)cc2ccc(C(F)(F)F)cc21

>  <score_type>  (39) 
oracle

>  <origin>  (39) 
adg

>  <m_score__min__energy>  (39) 
-6.75

>  <m_primary>  (39) 
energy

$$$$
39:0
     RDKit          3D

 41 42  0  0  0  0  0  0  0  0999 V2000
  142.6950  160.4950  133.2460 N   0  0  0  0  0  0  0  0  0  0  0  0
  144.0430  160.6390  133.6830 C   0  0  0  0  0  0  0  0  0  0  0  0
  144.4060  161.7210  134.2180 O   0  0  0  0  0  0  0  0  0  0  0  0
  145.0060  159.5270  133.5530 C   0  0  0  0  0  0  0  0  0  0  0  0
  146.3890  159.6890  133.6150 C   0  0  0  0  0  0  0  0  0  0  0  0
  146.9080  158.4150  133.5520 C   0  0  0  0  0  0  0  0  0  0  0  0
  148.2290  157.9820  133.5850 C   0  0  0  0  0  0  0  0  0  0  0  0
  148.4720  156.6010  133.4940 C   0  0  0  0  0  0  0  0  0  0  0  0
  147.3990  155.6820  133.3530 C   0  0  0  0  0  0  0  0  0  0  0  0
  147.6690  154.2000  133.2920 C   0  0  0  0  0  0  0  0  0  0  0  0
  146.6230  153.5740  132.6400 F   0  0  0  0  0  0  0  0  0  0  0  0
  148.8440  153.9460  132.6050 F   0  0  0  0  0  0  0  0  0  0  0  0
  147.7890  153.6720  134.5650 F   0  0  0  0  0  0  0  0  0  0  0  0
  146.0680  156.1620  133.3530 C   0  0  0  0  0  0  0  0  0  0  0  0
  145.8590  157.5410  133.4500 C   0  0  0  0  0  0  0  0  0  0  0  0
  144.6870  158.2080  133.4370 N   0  0  0  0  0  0  0  0  0  0  0  0
  143.3830  157.6180  133.3100 C   0  0  0  0  0  0  0  0  0  0  0  0
  142.8890  157.4760  132.1580 O   0  0  0  0  0  0  0  0  0  0  0  0
  142.6230  157.2300  134.4780 N   0  0  0  0  0  0  0  0  0  0  0  0
  143.0880  156.0910  135.2880 C   0  0  0  0  0  0  0  0  0  0  0  0
  142.5960  154.2270  134.3530 I   0  0  0  0  0  0  0  0  0  0  0  0
  141.4900  158.0690  134.9230 C   0  0  1  0  0  0  0  0  0  0  0  0
  140.2480  157.8920  134.0190 C   0  0  0  0  0  0  0  0  0  0  0  0
  140.0270  159.1020  133.1020 C   0  0  0  0  0  0  0  0  0  0  0  0
  140.6000  158.8680  131.8450 O   0  0  0  0  0  0  0  0  0  0  0  0
  141.1840  157.7970  136.3730 C   0  0  0  0  0  0  0  0  0  0  0  0
  141.7180  158.4850  137.2850 O   0  0  0  0  0  0  0  0  0  0  0  0
  140.2740  156.8040  136.7110 O   0  0  0  0  0  0  0  0  0  0  0  0
  142.4170  159.7220  132.6040 H   0  0  0  0  0  0  0  0  0  0  0  0
  146.9471  160.6334  133.6968 H   0  0  0  0  0  0  0  0  0  0  0  0
  149.0583  158.6985  133.6795 H   0  0  0  0  0  0  0  0  0  0  0  0
  149.5059  156.2275  133.5325 H   0  0  0  0  0  0  0  0  0  0  0  0
  145.2185  155.4672  133.2785 H   0  0  0  0  0  0  0  0  0  0  0  0
  144.1797  156.1564  135.4064 H   0  0  0  0  0  0  0  0  0  0  0  0
  142.5895  156.1326  136.2677 H   0  0  0  0  0  0  0  0  0  0  0  0
  141.7837  159.1249  134.8290 H   0  0  0  0  0  0  0  0  0  0  0  0
  140.3866  156.9956  133.3968 H   0  0  0  0  0  0  0  0  0  0  0  0
  139.3662  157.7929  134.6690 H   0  0  0  0  0  0  0  0  0  0  0  0
  138.9473  159.2749  132.9826 H   0  0  0  0  0  0  0  0  0  0  0  0
  140.5013  159.9858  133.5536 H   0  0  0  0  0  0  0  0  0  0  0  0
  141.5530  159.1400  131.9120 H   0  0  0  0  0  0  0  0  0  0  0  0
  1  2  1  0
  2  3  2  0
  2  4  1  0
  4  5  2  0
  5  6  1  0
  6  7  2  0
  7  8  1  0
  8  9  2  0
  9 10  1  0
 10 11  1  0
 10 12  1  0
 10 13  1  0
  9 14  1  0
 14 15  2  0
 15 16  1  0
 16 17  1  0
 17 18  2  0
 17 19  1  0
 19 20  1  0
 20 21  1  0
 19 22  1  0
 22 23  1  0
 23 24  1  0
 24 25  1  0
 22 26  1  0
 26 27  2  0
 26 28  1  0
 16  4  1  0
 15  6  1  0
  1 29  1  0
  5 30  1  0
  7 31  1  0
  8 32  1  0
 14 33  1  0
 20 34  1  0
 20 35  1  0
 22 36  1  1
 23 37  1  0
 23 38  1  0
 24 39  1  0
 24 40  1  0
 25 41  1  0
M  CHG  2   1  -1  28  -1
M  END
>  <UniqueID>  (40) 
40

>  <SMILES>  (40) 
[NH-]C(=O)c1cc2ccc(C(F)(F)F)cc2n1C(=O)N(CI)[C@@H](CCO)C(=O)[O-]

>  <Energy>  (40) 
77.8871488165766

>  <Genealogy>  (40) 
[NH-]C(=O)c1cc2ccc(C(F)(F)F)cc2n1C(=O)N(CI)[C@@H](CCO)C(=O)[O-] (protonated)
[NH-]C(=O)c1cc2ccc(C(F)(F)F)cc2n1C(=O)N(CI)[C@@H](CCO)C(=O)[O-] (3D coordinates assigned)
[NH-]C(=O)c1cc2ccc(C(F)(F)F)cc2n1C(=O)N(CI)[C@@H](CCO)C(=O)[O-] (optimized conformer: 77.8871488165766 kcal/mol)

>  <smiles>  (40) 
NC(=O)c1cc2ccc(C(F)(F)F)cc2n1C(=O)N(CI)[C@@H](CCO)C(=O)O

>  <score_type>  (40) 
oracle

>  <origin>  (40) 
adg

>  <m_score__min__energy>  (40) 
-6.4100000000000001

>  <m_primary>  (40) 
energy

$$$$
40:0
     RDKit          3D

 53 54  0  0  0  0  0  0  0  0999 V2000
  144.8690  158.2210  133.3510 C   0  0  0  0  0  0  0  0  0  0  0  0
  145.5250  156.9190  133.5030 N   0  0  0  0  0  0  0  0  0  0  0  0
  144.7100  155.7410  133.3980 C   0  0  0  0  0  0  0  0  0  0  0  0
  144.8500  154.9730  132.4090 O   0  0  0  0  0  0  0  0  0  0  0  0
  143.7150  155.4210  134.4350 C   0  0  0  0  0  0  0  0  0  0  0  0
  144.0710  155.3390  135.6410 O   0  0  0  0  0  0  0  0  0  0  0  0
  142.3270  155.3050  134.0950 N   0  0  0  0  0  0  0  0  0  0  0  0
  141.6300  154.1730  133.7920 C   0  0  0  0  0  0  0  0  0  0  0  0
  142.1060  152.7890  133.9950 C   0  0  0  0  0  0  0  0  0  0  0  0
  143.4340  152.4120  133.6410 N   0  0  0  0  0  0  0  0  0  0  0  0
  141.3420  151.9360  134.5190 O   0  0  0  0  0  0  0  0  0  0  0  0
  140.3630  154.4980  133.3120 C   0  0  0  0  0  0  0  0  0  0  0  0
  140.3040  155.8740  133.3360 C   0  0  0  0  0  0  0  0  0  0  0  0
  139.2980  156.7370  132.9170 C   0  0  0  0  0  0  0  0  0  0  0  0
  139.5300  158.1200  133.0200 C   0  0  0  0  0  0  0  0  0  0  0  0
  140.7470  158.6150  133.5550 C   0  0  0  0  0  0  0  0  0  0  0  0
  140.9940  160.0980  133.6180 C   0  0  0  0  0  0  0  0  0  0  0  0
  139.9860  160.7540  132.9400 F   0  0  0  0  0  0  0  0  0  0  0  0
  141.0070  160.5310  134.9300 F   0  0  0  0  0  0  0  0  0  0  0  0
  142.2100  160.4210  133.0410 F   0  0  0  0  0  0  0  0  0  0  0  0
  141.7600  157.7060  133.9400 C   0  0  0  0  0  0  0  0  0  0  0  0
  141.4980  156.3350  133.8240 C   0  0  0  0  0  0  0  0  0  0  0  0
  146.9560  156.8840  133.8830 C   0  0  1  0  0  0  0  0  0  0  0  0
  147.2630  156.0430  135.1520 C   0  0  0  0  0  0  0  0  0  0  0  0
  147.8150  154.6170  134.9000 C   0  0  0  0  0  0  0  0  0  0  0  0
  146.8440  153.6930  134.1950 C   0  0  0  0  0  0  0  0  0  0  0  0
  145.8230  153.3370  134.7700 O   0  0  0  0  0  0  0  0  0  0  0  0
  147.0680  153.3050  132.8150 N   0  0  0  0  0  0  0  0  0  0  0  0
  148.4760  152.9370  132.6050 C   0  0  0  0  0  0  0  0  0  0  0  0
  146.1790  152.1940  132.4410 C   0  0  0  0  0  0  0  0  0  0  0  0
  147.8200  156.4940  132.7140 C   0  0  0  0  0  0  0  0  0  0  0  0
  147.3930  155.6610  131.8720 O   0  0  0  0  0  0  0  0  0  0  0  0
  149.1070  156.9990  132.5800 O   0  0  0  0  0  0  0  0  0  0  0  0
  144.6565  158.6427  134.3445 H   0  0  0  0  0  0  0  0  0  0  0  0
  145.5312  158.9028  132.7972 H   0  0  0  0  0  0  0  0  0  0  0  0
  143.9270  158.0945  132.7972 H   0  0  0  0  0  0  0  0  0  0  0  0
  144.1600  153.1350  133.4260 H   0  0  0  0  0  0  0  0  0  0  0  0
  139.5763  153.8029  132.9834 H   0  0  0  0  0  0  0  0  0  0  0  0
  138.3493  156.3497  132.5170 H   0  0  0  0  0  0  0  0  0  0  0  0
  138.7582  158.8269  132.6815 H   0  0  0  0  0  0  0  0  0  0  0  0
  142.7274  158.0661  134.3202 H   0  0  0  0  0  0  0  0  0  0  0  0
  147.2138  157.9142  134.1696 H   0  0  0  0  0  0  0  0  0  0  0  0
  148.0064  156.5919  135.7487 H   0  0  0  0  0  0  0  0  0  0  0  0
  146.2965  155.9036  135.6585 H   0  0  0  0  0  0  0  0  0  0  0  0
  148.7213  154.7017  134.2824 H   0  0  0  0  0  0  0  0  0  0  0  0
  148.0131  154.1748  135.8875 H   0  0  0  0  0  0  0  0  0  0  0  0
  146.8470  154.1100  132.1830 H   0  0  0  0  0  0  0  0  0  0  0  0
  148.9704  152.8078  133.5791 H   0  0  0  0  0  0  0  0  0  0  0  0
  148.5283  151.9950  132.0394 H   0  0  0  0  0  0  0  0  0  0  0  0
  148.9826  153.7329  132.0394 H   0  0  0  0  0  0  0  0  0  0  0  0
  145.7927  151.7113  133.3508 H   0  0  0  0  0  0  0  0  0  0  0  0
  145.3385  152.5812  131.8463 H   0  0  0  0  0  0  0  0  0  0  0  0
  146.7411  151.4589  131.8463 H   0  0  0  0  0  0  0  0  0  0  0  0
  1  2  1  0
  2  3  1  0
  3  4  2  0
  3  5  1  0
  5  6  2  0
  5  7  1  0
  7  8  1  0
  8  9  1  0
  9 10  1  0
  9 11  2  0
  8 12  2  0
 12 13  1  0
 13 14  2  0
 14 15  1  0
 15 16  2  0
 16 17  1  0
 17 18  1  0
 17 19  1  0
 17 20  1  0
 16 21  1  0
 21 22  2  0
  2 23  1  0
 23 24  1  0
 24 25  1  0
 25 26  1  0
 26 27  2  0
 26 28  1  0
 28 29  1  0
 28 30  1  0
 23 31  1  0
 31 32  2  0
 31 33  1  0
 22  7  1  0
 22 13  1  0
  1 34  1  0
  1 35  1  0
  1 36  1  0
 10 37  1  0
 12 38  1  0
 14 39  1  0
 15 40  1  0
 21 41  1  0
 23 42  1  1
 24 43  1  0
 24 44  1  0
 25 45  1  0
 25 46  1  0
 28 47  1  0
 29 48  1  0
 29 49  1  0
 29 50  1  0
 30 51  1  0
 30 52  1  0
 30 53  1  0
M  CHG  3  10  -1  28   1  33  -1
M  END
>  <UniqueID>  (41) 
41

>  <SMILES>  (41) 
CN(C(=O)C(=O)n1c(C([NH-])=O)cc2ccc(C(F)(F)F)cc21)[C@@H](CCC(=O)[NH+](C)C)C(=O)[O-]

>  <Energy>  (41) 
99.533526437854

>  <Genealogy>  (41) 
CN(C(=O)C(=O)n1c(C([NH-])=O)cc2ccc(C(F)(F)F)cc21)[C@@H](CCC(=O)[NH+](C)C)C(=O)[O-] (protonated)
CN(C(=O)C(=O)n1c(C([NH-])=O)cc2ccc(C(F)(F)F)cc21)[C@@H](CCC(=O)[NH+](C)C)C(=O)[O-] (3D coordinates assigned)
CN(C(=O)C(=O)n1c(C([NH-])=O)cc2ccc(C(F)(F)F)cc21)[C@@H](CCC(=O)[NH+](C)C)C(=O)[O-] (optimized conformer: 99.533526437854 kcal/mol)

>  <smiles>  (41) 
CN(C)C(=O)CC[C@@H](C(=O)O)N(C)C(=O)C(=O)n1c(C(N)=O)cc2ccc(C(F)(F)F)cc21

>  <score_type>  (41) 
oracle

>  <origin>  (41) 
adg

>  <m_score__min__energy>  (41) 
-6.7599999999999998

>  <m_primary>  (41) 
energy

$$$$
41:0
     RDKit          3D

 47 48  0  0  0  0  0  0  0  0999 V2000
  139.0960  160.0930  130.5040 C   0  0  0  0  0  0  0  0  0  0  0  0
  139.6020  159.1590  131.3060 C   0  0  0  0  0  0  0  0  0  0  0  0
  140.8260  159.3020  131.9450 O   0  0  0  0  0  0  0  0  0  0  0  0
  138.8550  157.9030  131.5450 C   0  0  0  0  0  0  0  0  0  0  0  0
  139.0290  157.4550  132.9320 N   0  0  0  0  0  0  0  0  0  0  0  0
  138.3780  158.2170  133.9590 C   0  0  0  0  0  0  0  0  0  0  0  0
  139.8190  156.3070  133.1270 C   0  0  0  0  0  0  0  0  0  0  0  0
  139.3580  155.2210  132.6240 O   0  0  0  0  0  0  0  0  0  0  0  0
  141.0940  156.2120  133.8330 C   0  0  0  0  0  0  0  0  0  0  0  0
  141.9300  157.2790  133.5400 O   0  0  0  0  0  0  0  0  0  0  0  0
  143.0570  156.7460  132.9390 C   0  0  0  0  0  0  0  0  0  0  0  0
  144.3290  156.9570  133.6330 C   0  0  0  0  0  0  0  0  0  0  0  0
  144.5370  156.1210  134.5950 O   0  0  0  0  0  0  0  0  0  0  0  0
  145.3340  157.9040  133.4110 N   0  0  0  0  0  0  0  0  0  0  0  0
  145.2940  159.2390  133.2870 C   0  0  0  0  0  0  0  0  0  0  0  0
  144.2370  160.1750  133.6460 C   0  0  0  0  0  0  0  0  0  0  0  0
  142.8880  159.9150  133.1870 N   0  0  0  0  0  0  0  0  0  0  0  0
  144.3750  161.2040  134.3260 O   0  0  0  0  0  0  0  0  0  0  0  0
  146.5470  159.7280  132.8830 C   0  0  0  0  0  0  0  0  0  0  0  0
  147.3660  158.6430  132.7680 C   0  0  0  0  0  0  0  0  0  0  0  0
  148.6950  158.5940  132.4030 C   0  0  0  0  0  0  0  0  0  0  0  0
  149.3480  157.3850  132.3470 C   0  0  0  0  0  0  0  0  0  0  0  0
  148.6240  156.2590  132.6660 C   0  0  0  0  0  0  0  0  0  0  0  0
  149.3170  154.9240  132.6130 C   0  0  0  0  0  0  0  0  0  0  0  0
  147.2790  156.3200  133.0350 C   0  0  0  0  0  0  0  0  0  0  0  0
  146.6180  157.5420  133.0920 C   0  0  0  0  0  0  0  0  0  0  0  0
  138.1212  159.9331  130.0200 H   0  0  0  0  0  0  0  0  0  0  0  0
  139.6526  161.0248  130.3252 H   0  0  0  0  0  0  0  0  0  0  0  0
  141.5720  158.6420  131.8740 H   0  0  0  0  0  0  0  0  0  0  0  0
  137.7859  158.0758  131.3522 H   0  0  0  0  0  0  0  0  0  0  0  0
  139.2423  157.1258  130.8698 H   0  0  0  0  0  0  0  0  0  0  0  0
  138.6938  157.8474  134.9457 H   0  0  0  0  0  0  0  0  0  0  0  0
  138.6535  159.2773  133.8593 H   0  0  0  0  0  0  0  0  0  0  0  0
  137.2877  158.1105  133.8593 H   0  0  0  0  0  0  0  0  0  0  0  0
  140.9005  156.1992  134.9158 H   0  0  0  0  0  0  0  0  0  0  0  0
  141.5948  155.2882  133.5078 H   0  0  0  0  0  0  0  0  0  0  0  0
  142.9038  155.6608  132.8445 H   0  0  0  0  0  0  0  0  0  0  0  0
  143.1559  157.2785  131.9816 H   0  0  0  0  0  0  0  0  0  0  0  0
  142.6520  160.3970  132.2760 H   0  0  0  0  0  0  0  0  0  0  0  0
  142.2260  159.3240  133.6930 H   0  0  0  0  0  0  0  0  0  0  0  0
  146.8151  160.7783  132.6962 H   0  0  0  0  0  0  0  0  0  0  0  0
  149.2325  159.5216  132.1568 H   0  0  0  0  0  0  0  0  0  0  0  0
  150.4075  157.3205  132.0585 H   0  0  0  0  0  0  0  0  0  0  0  0
  149.5027  154.5664  133.6365 H   0  0  0  0  0  0  0  0  0  0  0  0
  148.6803  154.2012  132.0819 H   0  0  0  0  0  0  0  0  0  0  0  0
  150.2746  155.0288  132.0819 H   0  0  0  0  0  0  0  0  0  0  0  0
  146.7382  155.3946  133.2825 H   0  0  0  0  0  0  0  0  0  0  0  0
  1  2  2  0
  2  3  1  0
  2  4  1  0
  4  5  1  0
  5  6  1  0
  5  7  1  0
  7  8  2  0
  7  9  1  0
  9 10  1  0
 10 11  1  0
 11 12  1  0
 12 13  2  0
 12 14  1  0
 14 15  1  0
 15 16  1  0
 16 17  1  0
 16 18  2  0
 15 19  2  0
 19 20  1  0
 20 21  2  0
 21 22  1  0
 22 23  2  0
 23 24  1  0
 23 25  1  0
 25 26  2  0
 26 14  1  0
 26 20  1  0
  1 27  1  0
  1 28  1  0
  3 29  1  0
  4 30  1  0
  4 31  1  0
  6 32  1  0
  6 33  1  0
  6 34  1  0
  9 35  1  0
  9 36  1  0
 11 37  1  0
 11 38  1  0
 17 39  1  0
 17 40  1  0
 19 41  1  0
 21 42  1  0
 22 43  1  0
 24 44  1  0
 24 45  1  0
 24 46  1  0
 25 47  1  0
M  END
>  <smiles>  (42) 
C=C(O)CN(C)C(=O)COCC(=O)n1c(C(N)=O)cc2ccc(C)cc21

>  <score_type>  (42) 
oracle

>  <origin>  (42) 
adg

>  <m_score__min__energy>  (42) 
-7.5099999999999998

>  <m_primary>  (42) 
energy

$$$$
42:0
     RDKit          3D

 38 39  0  0  0  0  0  0  0  0999 V2000
  147.1630  157.2830  134.9080 H   0  0  0  0  0  0  0  0  0  0  0  0
  147.5910  157.8830  134.1690 N   0  0  0  0  0  0  0  0  0  0  0  0
  146.7840  158.7120  133.3360 C   0  0  0  0  0  0  0  0  0  0  0  0
  147.3330  159.4120  132.4450 O   0  0  0  0  0  0  0  0  0  0  0  0
  145.3120  158.7200  133.4680 C   0  0  0  0  0  0  0  0  0  0  0  0
  144.5720  159.8620  133.7660 C   0  0  0  0  0  0  0  0  0  0  0  0
  144.9595  160.8632  134.0058 H   0  0  0  0  0  0  0  0  0  0  0  0
  143.2540  159.4730  133.6970 C   0  0  0  0  0  0  0  0  0  0  0  0
  142.0910  160.2090  133.8960 C   0  0  0  0  0  0  0  0  0  0  0  0
  142.1334  161.2794  134.1459 H   0  0  0  0  0  0  0  0  0  0  0  0
  140.8590  159.5430  133.7680 C   0  0  0  0  0  0  0  0  0  0  0  0
  139.9222  160.1031  133.9047 H   0  0  0  0  0  0  0  0  0  0  0  0
  140.8090  158.1590  133.4650 C   0  0  0  0  0  0  0  0  0  0  0  0
  139.4710  157.4830  133.3000 C   0  0  0  0  0  0  0  0  0  0  0  0
  139.5980  156.1050  133.3000 F   0  0  0  0  0  0  0  0  0  0  0  0
  138.9040  157.8810  132.1020 F   0  0  0  0  0  0  0  0  0  0  0  0
  138.6290  157.8410  134.3380 F   0  0  0  0  0  0  0  0  0  0  0  0
  142.0170  157.4490  133.2550 C   0  0  0  0  0  0  0  0  0  0  0  0
  142.0041  156.3782  133.0036 H   0  0  0  0  0  0  0  0  0  0  0  0
  143.2270  158.1420  133.3750 C   0  0  0  0  0  0  0  0  0  0  0  0
  144.4830  157.6620  133.2350 N   0  0  0  0  0  0  0  0  0  0  0  0
  144.8490  156.2970  132.9840 C   0  0  0  0  0  0  0  0  0  0  0  0
  144.0300  155.5300  132.4060 O   0  0  0  0  0  0  0  0  0  0  0  0
  146.1230  155.8030  133.4240 N   0  0  0  0  0  0  0  0  0  0  0  0
  146.7040  156.4380  134.0140 H   0  0  0  0  0  0  0  0  0  0  0  0
  146.5910  154.6420  133.0640 C   0  0  0  0  0  0  0  0  0  0  0  0
  145.9744  153.9857  132.4323 H   0  0  0  0  0  0  0  0  0  0  0  0
  147.8950  154.2000  133.4740 N   0  0  0  0  0  0  0  0  0  0  0  0
  149.0180  154.4550  132.5720 C   0  0  0  0  0  0  0  0  0  0  0  0
  149.9231  154.6605  133.1624 H   0  0  0  0  0  0  0  0  0  0  0  0
  149.1866  153.5723  131.9377 H   0  0  0  0  0  0  0  0  0  0  0  0
  148.7888  155.3240  131.9377 H   0  0  0  0  0  0  0  0  0  0  0  0
  148.1060  153.4490  134.7200 C   0  0  0  0  0  0  0  0  0  0  0  0
  147.7416  152.4194  134.5891 H   0  0  0  0  0  0  0  0  0  0  0  0
  149.1805  153.4417  134.9555 H   0  0  0  0  0  0  0  0  0  0  0  0
  147.3640  154.0960  135.8500 C   0  0  0  0  0  0  0  0  0  0  0  0
  147.1440  155.3370  135.8380 O   0  0  0  0  0  0  0  0  0  0  0  0
  146.9270  153.3280  136.9230 O   0  0  0  0  0  0  0  0  0  0  0  0
  1  2  1  0
  2  3  1  0
  3  4  2  0
  3  5  1  0
  5  6  2  0
  6  7  1  0
  6  8  1  0
  8  9  2  0
  9 10  1  0
  9 11  1  0
 11 12  1  0
 11 13  2  0
 13 14  1  0
 14 15  1  0
 14 16  1  0
 14 17  1  0
 13 18  1  0
 18 19  1  0
 18 20  2  0
 20 21  1  0
 21 22  1  0
 22 23  2  0
 22 24  1  0
 24 25  1  0
 24 26  2  0
 26 27  1  0
 26 28  1  0
 28 29  1  0
 29 30  1  0
 29 31  1  0
 29 32  1  0
 28 33  1  0
 33 34  1  0
 33 35  1  0
 33 36  1  0
 36 37  2  0
 36 38  1  0
 21  5  1  0
 20  8  1  0
M  CHG  3   2  -1  24   1  38  -1
M  END
>  <UniqueID>  (43) 
42

>  <SMILES>  (43) 
CN(/C=[NH+]/C(=O)n1c(C([NH-])=O)cc2ccc(C(F)(F)F)cc21)CC(=O)[O-]

>  <Energy>  (43) 
78.18469849032576

>  <Genealogy>  (43) 
CN(/C=[NH+]/C(=O)n1c(C([NH-])=O)cc2ccc(C(F)(F)F)cc21)CC(=O)[O-] (protonated)
CN(/C=[NH+]/C(=O)n1c(C([NH-])=O)cc2ccc(C(F)(F)F)cc21)CC(=O)[O-] (cis-trans isomerization)
CN(/C=[NH+]/C(=O)n1c(C([NH-])=O)cc2ccc(C(F)(F)F)cc21)CC(=O)[O-] (3D coordinates assigned)
CN(/C=[NH+]/C(=O)n1c(C([NH-])=O)cc2ccc(C(F)(F)F)cc21)CC(=O)[O-] (optimized conformer: 78.18469849032576 kcal/mol)

>  <smiles>  (43) 
CN(/C=N/C(=O)n1c(C(N)=O)cc2ccc(C(F)(F)F)cc21)CC(=O)O

>  <score_type>  (43) 
oracle

>  <origin>  (43) 
adg

>  <m_score__min__energy>  (43) 
-5.6900000000000004

>  <m_primary>  (43) 
energy

$$$$
43:0
     RDKit          3D

 32 33  0  0  0  0  0  0  0  0999 V2000
  142.5890  156.7740  133.6550 H   0  0  0  0  0  0  0  0  0  0  0  0
  142.2250  157.7020  133.9630 N   0  0  0  0  0  0  0  0  0  0  0  0
  143.1110  158.7380  134.3780 C   0  0  0  0  0  0  0  0  0  0  0  0
  142.7220  159.5730  135.2380 O   0  0  0  0  0  0  0  0  0  0  0  0
  144.4860  158.8250  133.8440 C   0  0  0  0  0  0  0  0  0  0  0  0
  145.0730  160.0140  133.4140 C   0  0  0  0  0  0  0  0  0  0  0  0
  144.6089  161.0106  133.3754 H   0  0  0  0  0  0  0  0  0  0  0  0
  146.3560  159.6770  133.0480 C   0  0  0  0  0  0  0  0  0  0  0  0
  147.3800  160.4690  132.5330 C   0  0  0  0  0  0  0  0  0  0  0  0
  147.2385  161.5489  132.3786 H   0  0  0  0  0  0  0  0  0  0  0  0
  148.5990  159.8460  132.2170 C   0  0  0  0  0  0  0  0  0  0  0  0
  149.4296  160.4447  131.8149 H   0  0  0  0  0  0  0  0  0  0  0  0
  148.7670  158.4530  132.4120 C   0  0  0  0  0  0  0  0  0  0  0  0
  150.0090  157.8290  132.0790 N   0  0  0  0  0  0  0  0  0  0  0  0
  150.9130  158.2160  132.4320 H   0  0  0  0  0  0  0  0  0  0  0  0
  150.0350  156.9760  131.4770 H   0  0  0  0  0  0  0  0  0  0  0  0
  147.7070  157.6810  132.9330 C   0  0  0  0  0  0  0  0  0  0  0  0
  147.8184  156.5969  133.0827 H   0  0  0  0  0  0  0  0  0  0  0  0
  146.5110  158.3310  133.2540 C   0  0  0  0  0  0  0  0  0  0  0  0
  145.3750  157.7950  133.7540 N   0  0  0  0  0  0  0  0  0  0  0  0
  145.1310  156.4010  134.0060 C   0  0  0  0  0  0  0  0  0  0  0  0
  144.4340  155.7400  133.1900 O   0  0  0  0  0  0  0  0  0  0  0  0
  145.7500  155.6890  135.1450 C   0  0  0  0  0  0  0  0  0  0  0  0
  145.3180  155.8608  136.1419 H   0  0  0  0  0  0  0  0  0  0  0  0
  146.8020  154.8450  135.0630 C   0  0  0  0  0  0  0  0  0  0  0  0
  147.2560  154.1140  136.2730 C   0  0  0  0  0  0  0  0  0  0  0  0
  146.5930  153.1450  136.7320 O   0  0  0  0  0  0  0  0  0  0  0  0
  148.4320  154.4840  136.9170 O   0  0  0  0  0  0  0  0  0  0  0  0
  147.5340  154.6020  133.7650 C   0  0  0  0  0  0  0  0  0  0  0  0
  148.5579  154.2621  133.9796 H   0  0  0  0  0  0  0  0  0  0  0  0
  147.0057  153.8310  133.1849 H   0  0  0  0  0  0  0  0  0  0  0  0
  147.5716  155.5358  133.1849 H   0  0  0  0  0  0  0  0  0  0  0  0
  1  2  1  0
  2  3  1  0
  3  4  2  0
  3  5  1  0
  5  6  2  0
  6  7  1  0
  6  8  1  0
  8  9  2  0
  9 10  1  0
  9 11  1  0
 11 12  1  0
 11 13  2  0
 13 14  1  0
 14 15  1  0
 14 16  1  0
 13 17  1  0
 17 18  1  0
 17 19  2  0
 19 20  1  0
 20 21  1  0
 21 22  2  0
 21 23  1  0
 23 24  1  0
 23 25  2  0
 25 26  1  0
 26 27  2  0
 26 28  1  0
 25 29  1  0
 29 30  1  0
 29 31  1  0
 29 32  1  0
 20  5  1  0
 19  8  1  0
M  CHG  2   2  -1  28  -1
M  END
>  <UniqueID>  (44) 
43

>  <SMILES>  (44) 
C/C(=C\C(=O)n1c(C([NH-])=O)cc2ccc(N)cc21)C(=O)[O-]

>  <Energy>  (44) 
74.24206396521167

>  <Genealogy>  (44) 
C/C(=C\C(=O)n1c(C([NH-])=O)cc2ccc(N)cc21)C(=O)[O-] (protonated)
C/C(=C\C(=O)n1c(C([NH-])=O)cc2ccc(N)cc21)C(=O)[O-] (cis-trans isomerization)
C/C(=C\C(=O)n1c(C([NH-])=O)cc2ccc(N)cc21)C(=O)[O-] (3D coordinates assigned)
C/C(=C\C(=O)n1c(C([NH-])=O)cc2ccc(N)cc21)C(=O)[O-] (optimized conformer: 74.24206396521167 kcal/mol)

>  <smiles>  (44) 
C/C(=C\C(=O)n1c(C(N)=O)cc2ccc(N)cc21)C(=O)O

>  <score_type>  (44) 
oracle

>  <origin>  (44) 
adg

>  <m_score__min__energy>  (44) 
-7.0300000000000002

>  <m_primary>  (44) 
energy

$$$$
44:0
     RDKit          3D

 47 48  0  0  0  0  0  0  0  0999 V2000
  148.1860  157.2650  134.2260 N   0  0  0  0  0  0  0  0  0  0  0  0
  147.5390  158.2890  133.4690 C   0  0  0  0  0  0  0  0  0  0  0  0
  148.2260  159.0060  132.6950 O   0  0  0  0  0  0  0  0  0  0  0  0
  146.0880  158.5360  133.6190 C   0  0  0  0  0  0  0  0  0  0  0  0
  145.5220  159.8060  133.7110 C   0  0  0  0  0  0  0  0  0  0  0  0
  144.1630  159.5970  133.7410 C   0  0  0  0  0  0  0  0  0  0  0  0
  143.1210  160.5130  133.8380 C   0  0  0  0  0  0  0  0  0  0  0  0
  141.8070  160.0150  133.8760 C   0  0  0  0  0  0  0  0  0  0  0  0
  141.5550  158.6180  133.8270 C   0  0  0  0  0  0  0  0  0  0  0  0
  140.2000  158.1110  133.8870 N   0  0  0  0  0  0  0  0  0  0  0  0
  139.4580  158.0810  135.1590 C   0  0  0  0  0  0  0  0  0  0  0  0
  140.4010  157.9190  136.3540 C   0  0  0  0  0  0  0  0  0  0  0  0
  140.5100  159.1290  137.0500 O   0  0  0  0  0  0  0  0  0  0  0  0
  139.5320  157.6510  132.6600 C   0  0  0  0  0  0  0  0  0  0  0  0
  138.3780  158.5840  132.2820 C   0  0  0  0  0  0  0  0  0  0  0  0
  138.9650  159.9420  131.2240 P   0  0  0  0  0  0  0  0  0  0  0  0
  140.1120  159.4610  130.3650 O   0  0  0  0  0  0  0  0  0  0  0  0
  139.4850  161.2320  132.1870 O   0  0  0  0  0  0  0  0  0  0  0  0
  137.7000  160.4610  130.2300 O   0  0  0  0  0  0  0  0  0  0  0  0
  142.6460  157.7230  133.7260 C   0  0  0  0  0  0  0  0  0  0  0  0
  143.9430  158.2480  133.6700 C   0  0  0  0  0  0  0  0  0  0  0  0
  145.1160  157.5810  133.5940 N   0  0  0  0  0  0  0  0  0  0  0  0
  145.2960  156.1550  133.5770 C   0  0  0  0  0  0  0  0  0  0  0  0
  145.0120  155.4940  132.5410 O   0  0  0  0  0  0  0  0  0  0  0  0
  145.7720  155.5020  134.7190 O   0  0  0  0  0  0  0  0  0  0  0  0
  146.7720  154.4840  134.6760 C   0  0  1  0  0  0  0  0  0  0  0  0
  147.7310  154.7730  133.6910 O   0  0  0  0  0  0  0  0  0  0  0  0
  147.4320  154.3650  136.0150 C   0  0  0  0  0  0  0  0  0  0  0  0
  148.3160  155.1920  136.3620 O   0  0  0  0  0  0  0  0  0  0  0  0
  147.0990  153.3180  136.8640 O   0  0  0  0  0  0  0  0  0  0  0  0
  149.2180  157.1250  134.1430 H   0  0  0  0  0  0  0  0  0  0  0  0
  147.6430  156.6160  134.8370 H   0  0  0  0  0  0  0  0  0  0  0  0
  146.0497  160.7703  133.7511 H   0  0  0  0  0  0  0  0  0  0  0  0
  143.3190  161.5941  133.8836 H   0  0  0  0  0  0  0  0  0  0  0  0
  140.9626  160.7166  133.9446 H   0  0  0  0  0  0  0  0  0  0  0  0
  138.8993  159.0221  135.2694 H   0  0  0  0  0  0  0  0  0  0  0  0
  138.7738  157.2199  135.1396 H   0  0  0  0  0  0  0  0  0  0  0  0
  140.0038  157.1461  137.0285 H   0  0  0  0  0  0  0  0  0  0  0  0
  141.3958  157.6232  135.9894 H   0  0  0  0  0  0  0  0  0  0  0  0
  139.5830  159.4560  137.1810 H   0  0  0  0  0  0  0  0  0  0  0  0
  140.2628  157.6312  131.8381 H   0  0  0  0  0  0  0  0  0  0  0  0
  139.1256  156.6444  132.8379 H   0  0  0  0  0  0  0  0  0  0  0  0
  137.6126  158.0094  131.7397 H   0  0  0  0  0  0  0  0  0  0  0  0
  137.9548  159.0121  133.2027 H   0  0  0  0  0  0  0  0  0  0  0  0
  142.4788  156.6363  133.6921 H   0  0  0  0  0  0  0  0  0  0  0  0
  146.2904  153.5282  134.4220 H   0  0  0  0  0  0  0  0  0  0  0  0
  148.5600  155.0510  134.1630 H   0  0  0  0  0  0  0  0  0  0  0  0
  1  2  1  0
  2  3  2  0
  2  4  1  0
  4  5  2  0
  5  6  1  0
  6  7  2  0
  7  8  1  0
  8  9  2  0
  9 10  1  0
 10 11  1  0
 11 12  1  0
 12 13  1  0
 10 14  1  0
 14 15  1  0
 15 16  1  0
 16 17  2  0
 16 18  1  0
 16 19  1  0
  9 20  1  0
 20 21  2  0
 21 22  1  0
 22 23  1  0
 23 24  2  0
 23 25  1  0
 25 26  1  0
 26 27  1  0
 26 28  1  0
 28 29  2  0
 28 30  1  0
 22  4  1  0
 21  6  1  0
  1 31  1  0
  1 32  1  0
  5 33  1  0
  7 34  1  0
  8 35  1  0
 11 36  1  0
 11 37  1  0
 12 38  1  0
 12 39  1  0
 13 40  1  0
 14 41  1  0
 14 42  1  0
 15 43  1  0
 15 44  1  0
 20 45  1  0
 26 46  1  6
 27 47  1  0
M  CHG  3  18  -1  19  -1  30  -1
M  END
>  <UniqueID>  (45) 
44

>  <SMILES>  (45) 
NC(=O)c1cc2ccc(N(CCO)CCP(=O)([O-])[O-])cc2n1C(=O)O[C@@H](O)C(=O)[O-]

>  <Energy>  (45) 
76.81162056541575

>  <Genealogy>  (45) 
NC(=O)c1cc2ccc(N(CCO)CCP(=O)([O-])[O-])cc2n1C(=O)OC(O)C(=O)[O-] (protonated)
NC(=O)c1cc2ccc(N(CCO)CCP(=O)([O-])[O-])cc2n1C(=O)O[C@@H](O)C(=O)[O-] (chirality)
NC(=O)c1cc2ccc(N(CCO)CCP(=O)([O-])[O-])cc2n1C(=O)O[C@@H](O)C(=O)[O-] (3D coordinates assigned)
NC(=O)c1cc2ccc(N(CCO)CCP(=O)([O-])[O-])cc2n1C(=O)O[C@@H](O)C(=O)[O-] (optimized conformer: 76.81162056541575 kcal/mol)

>  <smiles>  (45) 
NC(=O)c1cc2ccc(N(CCO)CCP(=O)(O)O)cc2n1C(=O)OC(O)C(=O)O

>  <score_type>  (45) 
oracle

>  <origin>  (45) 
adg

>  <m_score__min__energy>  (45) 
-6.9800000000000004

>  <m_primary>  (45) 
energy

$$$$
45:0
     RDKit          3D

 63 64  0  0  0  0  0  0  0  0999 V2000
  151.1060  149.8830  129.9850 C   0  0  0  0  0  0  0  0  0  0  0  0
  149.7560  150.7690  130.8280 S   0  0  0  0  0  0  0  0  0  0  0  0
  150.6950  151.1570  132.3560 C   0  0  0  0  0  0  0  0  0  0  0  0
  149.7680  151.4560  133.4890 C   0  0  0  0  0  0  0  0  0  0  0  0
  149.6590  150.6460  134.4500 O   0  0  0  0  0  0  0  0  0  0  0  0
  149.0100  152.6100  133.4610 O   0  0  0  0  0  0  0  0  0  0  0  0
  149.1810  153.6460  132.5040 C   0  0  0  0  0  0  0  0  0  0  0  0
  148.5740  154.8450  132.9670 O   0  0  0  0  0  0  0  0  0  0  0  0
  147.1890  154.9590  133.1960 C   0  0  0  0  0  0  0  0  0  0  0  0
  146.3630  154.4020  132.4150 O   0  0  0  0  0  0  0  0  0  0  0  0
  146.7390  155.7230  134.3280 N   0  0  1  0  0  0  0  0  0  0  0  0
  147.2390  155.2100  135.6190 C   0  0  0  0  0  0  0  0  0  0  0  0
  146.9770  157.1770  134.1390 C   0  0  0  0  0  0  0  0  0  0  0  0
  147.0900  157.6670  132.6710 C   0  0  0  0  0  0  0  0  0  0  0  0
  146.9710  159.1280  132.5030 N   0  0  0  0  0  0  0  0  0  0  0  0
  147.9400  159.8270  131.6350 C   0  0  0  0  0  0  0  0  0  0  0  0
  146.0520  159.8720  133.3460 C   0  0  0  0  0  0  0  0  0  0  0  0
  146.3770  161.0270  133.7520 O   0  0  0  0  0  0  0  0  0  0  0  0
  144.6550  159.4150  133.6620 C   0  0  0  0  0  0  0  0  0  0  0  0
  144.1170  158.5520  132.6610 O   0  0  0  0  0  0  0  0  0  0  0  0
  143.7630  157.2310  132.9500 C   0  0  0  0  0  0  0  0  0  0  0  0
  144.5320  156.2830  132.6270 O   0  0  0  0  0  0  0  0  0  0  0  0
  142.5500  156.9540  133.6590 N   0  0  0  0  0  0  0  0  0  0  0  0
  142.3500  156.0600  134.6680 C   0  0  0  0  0  0  0  0  0  0  0  0
  143.3990  155.3030  135.3780 C   0  0  0  0  0  0  0  0  0  0  0  0
  144.3830  154.5800  134.6490 N   0  0  0  0  0  0  0  0  0  0  0  0
  143.4660  155.3500  136.6380 O   0  0  0  0  0  0  0  0  0  0  0  0
  141.0080  156.0290  135.0380 C   0  0  0  0  0  0  0  0  0  0  0  0
  140.3870  156.9500  134.2260 C   0  0  0  0  0  0  0  0  0  0  0  0
  139.0470  157.3130  134.1550 C   0  0  0  0  0  0  0  0  0  0  0  0
  138.6700  158.2490  133.1770 C   0  0  0  0  0  0  0  0  0  0  0  0
  139.6250  158.7960  132.2820 C   0  0  0  0  0  0  0  0  0  0  0  0
  139.1780  159.7850  131.2370 C   0  0  0  0  0  0  0  0  0  0  0  0
  139.2030  161.0610  131.7740 F   0  0  0  0  0  0  0  0  0  0  0  0
  137.8860  159.4850  130.8370 F   0  0  0  0  0  0  0  0  0  0  0  0
  139.9980  159.7520  130.1200 F   0  0  0  0  0  0  0  0  0  0  0  0
  140.9840  158.4220  132.4080 C   0  0  0  0  0  0  0  0  0  0  0  0
  141.3350  157.4920  133.3980 C   0  0  0  0  0  0  0  0  0  0  0  0
  151.7790  149.4413  130.7347 H   0  0  0  0  0  0  0  0  0  0  0  0
  150.6843  149.0854  129.3556 H   0  0  0  0  0  0  0  0  0  0  0  0
  151.6699  150.5872  129.3556 H   0  0  0  0  0  0  0  0  0  0  0  0
  151.3226  150.2937  132.6222 H   0  0  0  0  0  0  0  0  0  0  0  0
  151.3199  152.0429  132.1695 H   0  0  0  0  0  0  0  0  0  0  0  0
  150.2554  153.8203  132.3448 H   0  0  0  0  0  0  0  0  0  0  0  0
  148.7062  153.3443  131.5587 H   0  0  0  0  0  0  0  0  0  0  0  0
  145.7010  155.6030  134.3540 H   0  0  0  0  0  0  0  0  0  0  0  0
  146.7302  155.7320  136.4428 H   0  0  0  0  0  0  0  0  0  0  0  0
  147.0365  154.1310  135.6880 H   0  0  0  0  0  0  0  0  0  0  0  0
  148.3228  155.3848  135.6880 H   0  0  0  0  0  0  0  0  0  0  0  0
  146.1430  157.7177  134.6102 H   0  0  0  0  0  0  0  0  0  0  0  0
  147.9592  157.3762  134.5925 H   0  0  0  0  0  0  0  0  0  0  0  0
  148.0691  157.3547  132.2789 H   0  0  0  0  0  0  0  0  0  0  0  0
  146.2458  157.2195  132.1259 H   0  0  0  0  0  0  0  0  0  0  0  0
  148.6749  160.3571  132.2585 H   0  0  0  0  0  0  0  0  0  0  0  0
  148.4588  159.0938  131.0000 H   0  0  0  0  0  0  0  0  0  0  0  0
  147.4080  160.5507  131.0000 H   0  0  0  0  0  0  0  0  0  0  0  0
  144.6698  158.8755  134.6205 H   0  0  0  0  0  0  0  0  0  0  0  0
  144.0158  160.3091  133.7076 H   0  0  0  0  0  0  0  0  0  0  0  0
  144.7350  154.9470  133.7380 H   0  0  0  0  0  0  0  0  0  0  0  0
  140.5436  155.4023  135.8136 H   0  0  0  0  0  0  0  0  0  0  0  0
  138.3051  156.8811  134.8428 H   0  0  0  0  0  0  0  0  0  0  0  0
  137.6181  158.5623  133.1043 H   0  0  0  0  0  0  0  0  0  0  0  0
  141.7487  158.8513  131.7440 H   0  0  0  0  0  0  0  0  0  0  0  0
  1  2  1  0
  2  3  1  0
  3  4  1  0
  4  5  2  0
  4  6  1  0
  6  7  1  0
  7  8  1  0
  8  9  1  0
  9 10  2  0
  9 11  1  0
 11 12  1  0
 11 13  1  0
 13 14  1  0
 14 15  1  0
 15 16  1  0
 15 17  1  0
 17 18  2  0
 17 19  1  0
 19 20  1  0
 20 21  1  0
 21 22  2  0
 21 23  1  0
 23 24  1  0
 24 25  1  0
 25 26  1  0
 25 27  2  0
 24 28  2  0
 28 29  1  0
 29 30  2  0
 30 31  1  0
 31 32  2  0
 32 33  1  0
 33 34  1  0
 33 35  1  0
 33 36  1  0
 32 37  1  0
 37 38  2  0
 38 23  1  0
 38 29  1  0
  1 39  1  0
  1 40  1  0
  1 41  1  0
  3 42  1  0
  3 43  1  0
  7 44  1  0
  7 45  1  0
 11 46  1  1
 12 47  1  0
 12 48  1  0
 12 49  1  0
 13 50  1  0
 13 51  1  0
 14 52  1  0
 14 53  1  0
 16 54  1  0
 16 55  1  0
 16 56  1  0
 19 57  1  0
 19 58  1  0
 26 59  1  0
 28 60  1  0
 30 61  1  0
 31 62  1  0
 37 63  1  0
M  CHG  2  11   1  26  -1
M  END
>  <UniqueID>  (46) 
45

>  <SMILES>  (46) 
CSCC(=O)OCOC(=O)[N@@H+](C)CCN(C)C(=O)COC(=O)n1c(C([NH-])=O)cc2ccc(C(F)(F)F)cc21

>  <Energy>  (46) 
98.24493045054264

>  <Genealogy>  (46) 
CSCC(=O)OCOC(=O)[NH+](C)CCN(C)C(=O)COC(=O)n1c(C([NH-])=O)cc2ccc(C(F)(F)F)cc21 (protonated)
CSCC(=O)OCOC(=O)[N@@H+](C)CCN(C)C(=O)COC(=O)n1c(C([NH-])=O)cc2ccc(C(F)(F)F)cc21 (chirality)
CSCC(=O)OCOC(=O)[N@@H+](C)CCN(C)C(=O)COC(=O)n1c(C([NH-])=O)cc2ccc(C(F)(F)F)cc21 (3D coordinates assigned)
CSCC(=O)OCOC(=O)[N@@H+](C)CCN(C)C(=O)COC(=O)n1c(C([NH-])=O)cc2ccc(C(F)(F)F)cc21 (optimized conformer: 98.24493045054264 kcal/mol)

>  <smiles>  (46) 
CSCC(=O)OCOC(=O)N(C)CCN(C)C(=O)COC(=O)n1c(C(N)=O)cc2ccc(C(F)(F)F)cc21

>  <score_type>  (46) 
oracle

>  <origin>  (46) 
adg

>  <m_score__min__energy>  (46) 
-6.4000000000000004

>  <m_primary>  (46) 
energy

$$$$
46:0
     RDKit          3D

 50 51  0  0  0  0  0  0  0  0999 V2000
  150.1560  152.2680  130.4000 H   0  0  0  0  0  0  0  0  0  0  0  0
  150.0350  151.3210  130.1290 O   0  0  0  0  0  0  0  0  0  0  0  0
  149.9660  150.5780  131.3180 C   0  0  0  0  0  0  0  0  0  0  0  0
  150.9770  150.4889  131.7422 H   0  0  0  0  0  0  0  0  0  0  0  0
  149.5504  149.5876  131.0807 H   0  0  0  0  0  0  0  0  0  0  0  0
  149.0340  151.2590  132.3690 C   0  0  0  0  0  0  0  0  0  0  0  0
  148.8850  152.7310  132.0890 N   0  0  0  0  0  0  0  0  0  0  0  0
  150.1020  153.5550  132.2420 C   0  0  0  0  0  0  0  0  0  0  0  0
  150.3151  153.6993  133.3115 H   0  0  0  0  0  0  0  0  0  0  0  0
  150.9520  153.0458  131.7642 H   0  0  0  0  0  0  0  0  0  0  0  0
  149.9449  154.5333  131.7642 H   0  0  0  0  0  0  0  0  0  0  0  0
  147.6760  153.4100  132.6290 C   0  0  0  0  0  0  0  0  0  0  0  0
  146.9607  153.5533  131.8057 H   0  0  0  0  0  0  0  0  0  0  0  0
  147.2737  152.7670  133.4256 H   0  0  0  0  0  0  0  0  0  0  0  0
  147.9650  154.7560  133.2500 C   0  0  0  0  0  0  0  0  0  0  0  0
  149.0048  155.0290  133.4830 H   0  0  0  0  0  0  0  0  0  0  0  0
  146.9830  155.6240  133.5230 C   0  0  0  0  0  0  0  0  0  0  0  0
  145.9406  155.3140  133.3580 H   0  0  0  0  0  0  0  0  0  0  0  0
  147.2480  156.9810  134.0370 C   0  0  0  0  0  0  0  0  0  0  0  0
  148.1840  157.1560  134.8620 O   0  0  0  0  0  0  0  0  0  0  0  0
  146.4550  158.1050  133.6240 N   0  0  0  0  0  0  0  0  0  0  0  0
  146.8780  159.2330  132.9900 C   0  0  0  0  0  0  0  0  0  0  0  0
  148.2860  159.5240  132.6190 C   0  0  0  0  0  0  0  0  0  0  0  0
  148.5370  160.3300  131.6860 O   0  0  0  0  0  0  0  0  0  0  0  0
  149.3760  158.8960  133.2970 N   0  0  0  0  0  0  0  0  0  0  0  0
  150.3570  159.1020  133.0050 H   0  0  0  0  0  0  0  0  0  0  0  0
  149.2290  158.2520  134.1040 H   0  0  0  0  0  0  0  0  0  0  0  0
  145.8010  160.1010  132.7890 C   0  0  0  0  0  0  0  0  0  0  0  0
  145.8230  161.0899  132.3078 H   0  0  0  0  0  0  0  0  0  0  0  0
  144.7060  159.4560  133.3210 C   0  0  0  0  0  0  0  0  0  0  0  0
  143.3800  159.8650  133.4140 C   0  0  0  0  0  0  0  0  0  0  0  0
  143.0584  160.8398  133.0187 H   0  0  0  0  0  0  0  0  0  0  0  0
  142.4630  158.9940  134.0290 C   0  0  0  0  0  0  0  0  0  0  0  0
  141.4105  159.2971  134.1314 H   0  0  0  0  0  0  0  0  0  0  0  0
  142.8790  157.7290  134.5190 C   0  0  0  0  0  0  0  0  0  0  0  0
  141.8880  156.8350  135.2200 C   0  0  0  0  0  0  0  0  0  0  0  0
  140.9360  156.3530  134.3380 F   0  0  0  0  0  0  0  0  0  0  0  0
  141.2380  157.5380  136.2190 F   0  0  0  0  0  0  0  0  0  0  0  0
  142.5590  155.7660  135.7840 F   0  0  0  0  0  0  0  0  0  0  0  0
  144.2410  157.3560  134.4140 C   0  0  0  0  0  0  0  0  0  0  0  0
  144.5911  156.3856  134.7958 H   0  0  0  0  0  0  0  0  0  0  0  0
  145.1290  158.2520  133.8130 C   0  0  0  0  0  0  0  0  0  0  0  0
  149.5810  150.9780  133.7880 C   0  0  0  0  0  0  0  0  0  0  0  0
  148.8643  151.3462  134.5368 H   0  0  0  0  0  0  0  0  0  0  0  0
  149.7235  149.8951  133.9182 H   0  0  0  0  0  0  0  0  0  0  0  0
  150.5443  151.4929  133.9182 H   0  0  0  0  0  0  0  0  0  0  0  0
  147.6520  150.5670  132.2350 C   0  0  0  0  0  0  0  0  0  0  0  0
  147.2453  150.3633  133.2365 H   0  0  0  0  0  0  0  0  0  0  0  0
  146.9633  151.2266  131.6867 H   0  0  0  0  0  0  0  0  0  0  0  0
  147.7675  149.6204  131.6867 H   0  0  0  0  0  0  0  0  0  0  0  0
  1  2  1  0
  2  3  1  0
  3  4  1  0
  3  5  1  0
  3  6  1  0
  6  7  1  0
  7  8  1  0
  8  9  1  0
  8 10  1  0
  8 11  1  0
  7 12  1  0
 12 13  1  0
 12 14  1  0
 12 15  1  0
 15 16  1  0
 15 17  2  0
 17 18  1  0
 17 19  1  0
 19 20  2  0
 19 21  1  0
 21 22  1  0
 22 23  1  0
 23 24  2  0
 23 25  1  0
 25 26  1  0
 25 27  1  0
 22 28  2  0
 28 29  1  0
 28 30  1  0
 30 31  2  0
 31 32  1  0
 31 33  1  0
 33 34  1  0
 33 35  2  0
 35 36  1  0
 36 37  1  0
 36 38  1  0
 36 39  1  0
 35 40  1  0
 40 41  1  0
 40 42  2  0
  6 43  1  0
 43 44  1  0
 43 45  1  0
 43 46  1  0
  6 47  1  0
 47 48  1  0
 47 49  1  0
 47 50  1  0
 42 21  1  0
 42 30  1  0
M  END
>  <UniqueID>  (47) 
46

>  <SMILES>  (47) 
CN(C/C=C/C(=O)n1c(C(N)=O)cc2ccc(C(F)(F)F)cc21)C(C)(C)CO

>  <Energy>  (47) 
98.95853581647602

>  <Genealogy>  (47) 
CN(C/C=C/C(=O)n1c(C(N)=O)cc2ccc(C(F)(F)F)cc21)C(C)(C)CO (cis-trans isomerization)
CN(C/C=C/C(=O)n1c(C(N)=O)cc2ccc(C(F)(F)F)cc21)C(C)(C)CO (3D coordinates assigned)
CN(C/C=C/C(=O)n1c(C(N)=O)cc2ccc(C(F)(F)F)cc21)C(C)(C)CO (optimized conformer: 98.95853581647602 kcal/mol)

>  <smiles>  (47) 
CN(CC=CC(=O)n1c(C(N)=O)cc2ccc(C(F)(F)F)cc21)C(C)(C)CO

>  <score_type>  (47) 
oracle

>  <origin>  (47) 
adg

>  <m_score__min__energy>  (47) 
-7.79

>  <m_primary>  (47) 
energy

$$$$
47:0
     RDKit          3D

 50 51  0  0  0  0  0  0  0  0999 V2000
  146.1850  162.8860  133.7420 H   0  0  0  0  0  0  0  0  0  0  0  0
  145.3070  162.7000  134.2760 N   0  0  0  0  0  0  0  0  0  0  0  0
  144.3690  161.7250  133.8270 C   0  0  0  0  0  0  0  0  0  0  0  0
  143.1830  162.0730  133.5900 O   0  0  0  0  0  0  0  0  0  0  0  0
  144.7910  160.3170  133.6690 C   0  0  0  0  0  0  0  0  0  0  0  0
  146.0460  159.9310  133.2030 C   0  0  0  0  0  0  0  0  0  0  0  0
  146.8604  160.5864  132.8605 H   0  0  0  0  0  0  0  0  0  0  0  0
  146.0510  158.5550  133.2620 C   0  0  0  0  0  0  0  0  0  0  0  0
  147.0410  157.6460  132.9050 C   0  0  0  0  0  0  0  0  0  0  0  0
  148.0118  157.9888  132.5176 H   0  0  0  0  0  0  0  0  0  0  0  0
  146.7640  156.2760  133.0540 C   0  0  0  0  0  0  0  0  0  0  0  0
  147.5245  155.5334  132.7709 H   0  0  0  0  0  0  0  0  0  0  0  0
  145.5130  155.8400  133.5660 C   0  0  0  0  0  0  0  0  0  0  0  0
  145.2040  154.3690  133.6770 C   0  0  0  0  0  0  0  0  0  0  0  0
  146.3870  153.6530  133.6690 F   0  0  0  0  0  0  0  0  0  0  0  0
  144.5200  154.0990  134.8500 F   0  0  0  0  0  0  0  0  0  0  0  0
  144.4190  153.9570  132.6140 F   0  0  0  0  0  0  0  0  0  0  0  0
  144.5230  156.7970  133.8880 C   0  0  0  0  0  0  0  0  0  0  0  0
  143.5308  156.4821  134.2437 H   0  0  0  0  0  0  0  0  0  0  0  0
  144.8340  158.1530  133.7440 C   0  0  0  0  0  0  0  0  0  0  0  0
  144.0530  159.2220  134.0080 N   0  0  0  0  0  0  0  0  0  0  0  0
  142.6890  159.1910  134.4630 C   0  0  0  0  0  0  0  0  0  0  0  0
  142.3990  159.7000  135.5780 O   0  0  0  0  0  0  0  0  0  0  0  0
  141.5980  158.6620  133.6200 C   0  0  0  0  0  0  0  0  0  0  0  0
  141.6963  158.7836  132.5312 H   0  0  0  0  0  0  0  0  0  0  0  0
  140.4930  158.0430  134.0760 C   0  0  0  0  0  0  0  0  0  0  0  0
  139.5490  157.5180  133.1220 N   0  0  0  0  0  0  0  0  0  0  0  0
  139.8030  156.3380  132.4390 O   0  0  0  0  0  0  0  0  0  0  0  0
  140.0820  155.1250  133.0790 C   0  0  0  0  0  0  0  0  0  0  0  0
  139.2900  154.1470  132.9780 O   0  0  0  0  0  0  0  0  0  0  0  0
  141.2690  155.0020  133.8030 O   0  0  0  0  0  0  0  0  0  0  0  0
  141.7430  153.7510  134.2940 C   0  0  0  0  0  0  0  0  0  0  0  0
  142.5970  153.9241  134.9653 H   0  0  0  0  0  0  0  0  0  0  0  0
  140.9312  153.2492  134.8410 H   0  0  0  0  0  0  0  0  0  0  0  0
  142.1510  152.9320  133.2240 O   0  0  0  0  0  0  0  0  0  0  0  0
  141.3700  151.4190  133.3490 P   0  0  2  0  0  5  0  0  0  0  0  0
  141.0710  151.1480  134.8050 O   0  0  0  0  0  0  0  0  0  0  0  0
  142.3700  150.1880  132.7590 O   0  0  0  0  0  0  0  0  0  0  0  0
  139.9110  151.4380  132.4880 O   0  0  0  0  0  0  0  0  0  0  0  0
  139.9020  152.3100  132.0180 H   0  0  0  0  0  0  0  0  0  0  0  0
  138.5010  158.3950  132.6000 C   0  0  0  0  0  0  0  0  0  0  0  0
  137.6967  157.7828  132.1660 H   0  0  0  0  0  0  0  0  0  0  0  0
  138.1020  159.0084  133.4213 H   0  0  0  0  0  0  0  0  0  0  0  0
  139.0630  159.2940  131.5450 C   0  0  0  0  0  0  0  0  0  0  0  0
  140.1500  159.0030  130.9800 O   0  0  0  0  0  0  0  0  0  0  0  0
  138.3980  160.4630  131.1980 O   0  0  0  0  0  0  0  0  0  0  0  0
  140.1970  157.8820  135.5440 C   0  0  0  0  0  0  0  0  0  0  0  0
  141.0129  158.3258  136.1334 H   0  0  0  0  0  0  0  0  0  0  0  0
  139.2518  158.3903  135.7854 H   0  0  0  0  0  0  0  0  0  0  0  0
  140.1101  156.8123  135.7854 H   0  0  0  0  0  0  0  0  0  0  0  0
  1  2  1  0
  2  3  1  0
  3  4  2  0
  3  5  1  0
  5  6  2  0
  6  7  1  0
  6  8  1  0
  8  9  2  0
  9 10  1  0
  9 11  1  0
 11 12  1  0
 11 13  2  0
 13 14  1  0
 14 15  1  0
 14 16  1  0
 14 17  1  0
 13 18  1  0
 18 19  1  0
 18 20  2  0
 20 21  1  0
 21 22  1  0
 22 23  2  0
 22 24  1  0
 24 25  1  0
 24 26  2  0
 26 27  1  0
 27 28  1  0
 28 29  1  0
 29 30  2  0
 29 31  1  0
 31 32  1  0
 32 33  1  0
 32 34  1  0
 32 35  1  0
 35 36  1  0
 36 37  2  0
 36 38  1  6
 36 39  1  0
 39 40  1  0
 27 41  1  0
 41 42  1  0
 41 43  1  0
 41 44  1  0
 44 45  2  0
 44 46  1  0
 26 47  1  0
 47 48  1  0
 47 49  1  0
 47 50  1  0
 21  5  1  0
 20  8  1  0
M  CHG  3   2  -1  38  -1  46  -1
M  END
>  <UniqueID>  (48) 
47

>  <SMILES>  (48) 
C/C(=C\C(=O)n1c(C([NH-])=O)cc2ccc(C(F)(F)F)cc21)N(CC(=O)[O-])OC(=O)OCO[P@](=O)([O-])O

>  <Energy>  (48) 
93.29102861411059

>  <Genealogy>  (48) 
CC(=CC(=O)n1c(C([NH-])=O)cc2ccc(C(F)(F)F)cc21)N(CC(=O)[O-])OC(=O)OCOP(=O)([O-])O (protonated)
CC(=CC(=O)n1c(C([NH-])=O)cc2ccc(C(F)(F)F)cc21)N(CC(=O)[O-])OC(=O)OCO[P@](=O)([O-])O (chirality)
C/C(=C\C(=O)n1c(C([NH-])=O)cc2ccc(C(F)(F)F)cc21)N(CC(=O)[O-])OC(=O)OCO[P@](=O)([O-])O (cis-trans isomerization)
C/C(=C\C(=O)n1c(C([NH-])=O)cc2ccc(C(F)(F)F)cc21)N(CC(=O)[O-])OC(=O)OCO[P@](=O)([O-])O (3D coordinates assigned)
C/C(=C\C(=O)n1c(C([NH-])=O)cc2ccc(C(F)(F)F)cc21)N(CC(=O)[O-])OC(=O)OCO[P@](=O)([O-])O (optimized conformer: 93.29102861411059 kcal/mol)

>  <smiles>  (48) 
CC(=CC(=O)n1c(C(N)=O)cc2ccc(C(F)(F)F)cc21)N(CC(=O)O)OC(=O)OCOP(=O)(O)O

>  <score_type>  (48) 
oracle

>  <origin>  (48) 
adg

>  <m_score__min__energy>  (48) 
-7.1200000000000001

>  <m_primary>  (48) 
energy

$$$$
48:0
     RDKit          3D

 48 49  0  0  0  0  0  0  0  0999 V2000
  142.5510  159.7730  132.7130 H   0  0  0  0  0  0  0  0  0  0  0  0
  142.8000  160.5620  133.3500 N   0  0  0  0  0  0  0  0  0  0  0  0
  144.1620  160.8550  133.6600 C   0  0  0  0  0  0  0  0  0  0  0  0
  144.4690  162.0040  134.0760 O   0  0  0  0  0  0  0  0  0  0  0  0
  145.1940  159.8090  133.5080 C   0  0  0  0  0  0  0  0  0  0  0  0
  146.5640  160.0640  133.4420 C   0  0  0  0  0  0  0  0  0  0  0  0
  147.0647  161.0419  133.4977 H   0  0  0  0  0  0  0  0  0  0  0  0
  147.1560  158.8280  133.2920 C   0  0  0  0  0  0  0  0  0  0  0  0
  148.5000  158.4830  133.1870 C   0  0  0  0  0  0  0  0  0  0  0  0
  149.2857  159.2528  133.1952 H   0  0  0  0  0  0  0  0  0  0  0  0
  148.8220  157.1190  133.0700 C   0  0  0  0  0  0  0  0  0  0  0  0
  149.8753  156.8162  132.9757 H   0  0  0  0  0  0  0  0  0  0  0  0
  147.8070  156.1290  133.0720 C   0  0  0  0  0  0  0  0  0  0  0  0
  148.1970  154.6780  132.9580 C   0  0  0  0  0  0  0  0  0  0  0  0
  148.4100  154.1540  134.2220 F   0  0  0  0  0  0  0  0  0  0  0  0
  149.3660  154.5740  132.2270 F   0  0  0  0  0  0  0  0  0  0  0  0
  147.2130  153.9300  132.3330 F   0  0  0  0  0  0  0  0  0  0  0  0
  146.4490  156.5220  133.1660 C   0  0  0  0  0  0  0  0  0  0  0  0
  145.6425  155.7741  133.1550 H   0  0  0  0  0  0  0  0  0  0  0  0
  146.1620  157.8850  133.2730 C   0  0  0  0  0  0  0  0  0  0  0  0
  144.9550  158.4740  133.3970 N   0  0  0  0  0  0  0  0  0  0  0  0
  143.6880  157.8070  133.4410 C   0  0  0  0  0  0  0  0  0  0  0  0
  143.1100  157.5080  132.3640 O   0  0  0  0  0  0  0  0  0  0  0  0
  143.0510  157.4560  134.7240 C   0  0  0  0  0  0  0  0  0  0  0  0
  143.1553  158.1465  135.5739 H   0  0  0  0  0  0  0  0  0  0  0  0
  142.3500  156.3270  134.8920 C   0  0  0  0  0  0  0  0  0  0  0  0
  142.2761  155.6156  134.0563 H   0  0  0  0  0  0  0  0  0  0  0  0
  141.6720  156.0080  136.1680 C   0  0  0  0  0  0  0  0  0  0  0  0
  141.6260  154.8100  136.5620 O   0  0  0  0  0  0  0  0  0  0  0  0
  141.1040  157.0440  136.9930 N   0  0  0  0  0  0  0  0  0  0  0  0
  141.6150  157.2190  138.3560 C   0  0  0  0  0  0  0  0  0  0  0  0
  140.8307  156.9504  139.0789 H   0  0  0  0  0  0  0  0  0  0  0  0
  142.4899  156.5692  138.5058 H   0  0  0  0  0  0  0  0  0  0  0  0
  141.9079  158.2686  138.5058 H   0  0  0  0  0  0  0  0  0  0  0  0
  139.8950  157.7760  136.5820 C   0  0  0  0  0  0  0  0  0  0  0  0
  139.4498  158.2602  137.4637 H   0  0  0  0  0  0  0  0  0  0  0  0
  139.1860  157.0624  136.1370 H   0  0  0  0  0  0  0  0  0  0  0  0
  140.2330  158.8470  135.5380 C   0  0  0  0  0  0  0  0  0  0  0  0
  141.3214  159.0055  135.5255 H   0  0  0  0  0  0  0  0  0  0  0  0
  139.7098  159.7759  135.8088 H   0  0  0  0  0  0  0  0  0  0  0  0
  139.7920  158.4370  134.1960 N   0  0  0  0  0  0  0  0  0  0  0  0
  139.1130  157.1890  133.9930 C   0  0  0  0  0  0  0  0  0  0  0  0
  138.1345  157.0200  134.4663 H   0  0  0  0  0  0  0  0  0  0  0  0
  139.6230  156.2850  133.2800 O   0  0  0  0  0  0  0  0  0  0  0  0
  140.0760  159.2720  133.0290 C   0  0  0  0  0  0  0  0  0  0  0  0
  140.4136  160.2646  133.3618 H   0  0  0  0  0  0  0  0  0  0  0  0
  140.8643  158.8005  132.4238 H   0  0  0  0  0  0  0  0  0  0  0  0
  139.1637  159.3789  132.4238 H   0  0  0  0  0  0  0  0  0  0  0  0
  1  2  1  0
  2  3  1  0
  3  4  2  0
  3  5  1  0
  5  6  2  0
  6  7  1  0
  6  8  1  0
  8  9  2  0
  9 10  1  0
  9 11  1  0
 11 12  1  0
 11 13  2  0
 13 14  1  0
 14 15  1  0
 14 16  1  0
 14 17  1  0
 13 18  1  0
 18 19  1  0
 18 20  2  0
 20 21  1  0
 21 22  1  0
 22 23  2  0
 22 24  1  0
 24 25  1  0
 24 26  2  0
 26 27  1  0
 26 28  1  0
 28 29  2  0
 28 30  1  0
 30 31  1  0
 31 32  1  0
 31 33  1  0
 31 34  1  0
 30 35  1  0
 35 36  1  0
 35 37  1  0
 35 38  1  0
 38 39  1  0
 38 40  1  0
 38 41  1  0
 41 42  1  0
 42 43  1  0
 42 44  2  0
 41 45  1  0
 45 46  1  0
 45 47  1  0
 45 48  1  0
 21  5  1  0
 20  8  1  0
M  CHG  1   2  -1
M  END
>  <UniqueID>  (49) 
48

>  <SMILES>  (49) 
CN(C=O)CCN(C)C(=O)/C=C/C(=O)n1c(C([NH-])=O)cc2ccc(C(F)(F)F)cc21

>  <Energy>  (49) 
79.70823842943624

>  <Genealogy>  (49) 
CN(C=O)CCN(C)C(=O)/C=C/C(=O)n1c(C([NH-])=O)cc2ccc(C(F)(F)F)cc21 (protonated)
CN(C=O)CCN(C)C(=O)/C=C/C(=O)n1c(C([NH-])=O)cc2ccc(C(F)(F)F)cc21 (cis-trans isomerization)
CN(C=O)CCN(C)C(=O)/C=C/C(=O)n1c(C([NH-])=O)cc2ccc(C(F)(F)F)cc21 (3D coordinates assigned)
CN(C=O)CCN(C)C(=O)/C=C/C(=O)n1c(C([NH-])=O)cc2ccc(C(F)(F)F)cc21 (optimized conformer: 79.70823842943624 kcal/mol)

>  <smiles>  (49) 
CN(C=O)CCN(C)C(=O)/C=C/C(=O)n1c(C(N)=O)cc2ccc(C(F)(F)F)cc21

>  <score_type>  (49) 
oracle

>  <origin>  (49) 
adg

>  <m_score__min__energy>  (49) 
-7.6799999999999997

>  <m_primary>  (49) 
energy

$$$$
49:0
     RDKit          3D

 37 38  0  0  0  0  0  0  0  0999 V2000
  147.5340  152.8590  134.3280 H   0  0  0  0  0  0  0  0  0  0  0  0
  148.4650  152.8390  133.8560 N   0  0  0  0  0  0  0  0  0  0  0  0
  148.8770  153.9040  133.0030 C   0  0  0  0  0  0  0  0  0  0  0  0
  149.8010  153.7080  132.1710 O   0  0  0  0  0  0  0  0  0  0  0  0
  148.2420  155.2340  133.1280 C   0  0  0  0  0  0  0  0  0  0  0  0
  148.8150  156.4090  132.6460 C   0  0  0  0  0  0  0  0  0  0  0  0
  149.8057  156.5267  132.1827 H   0  0  0  0  0  0  0  0  0  0  0  0
  147.8770  157.3920  132.8730 C   0  0  0  0  0  0  0  0  0  0  0  0
  147.9160  158.7530  132.5890 C   0  0  0  0  0  0  0  0  0  0  0  0
  148.7918  159.2052  132.1007 H   0  0  0  0  0  0  0  0  0  0  0  0
  146.8020  159.5330  132.9450 C   0  0  0  0  0  0  0  0  0  0  0  0
  146.7987  160.6104  132.7230 H   0  0  0  0  0  0  0  0  0  0  0  0
  145.6830  158.9460  133.5870 C   0  0  0  0  0  0  0  0  0  0  0  0
  144.4850  159.7910  133.9390 C   0  0  2  0  0  0  0  0  0  0  0  0
  144.1158  159.4728  134.9251 H   0  0  0  0  0  0  0  0  0  0  0  0
  143.4860  159.6170  132.9960 F   0  0  0  0  0  0  0  0  0  0  0  0
  144.8700  161.2660  134.0080 C   0  0  0  0  0  0  0  0  0  0  0  0
  144.9507  161.5750  135.0606 H   0  0  0  0  0  0  0  0  0  0  0  0
  145.8375  161.4163  133.5066 H   0  0  0  0  0  0  0  0  0  0  0  0
  144.0994  161.8699  133.5066 H   0  0  0  0  0  0  0  0  0  0  0  0
  145.6750  157.5560  133.8480 C   0  0  0  0  0  0  0  0  0  0  0  0
  144.8121  157.0783  134.3351 H   0  0  0  0  0  0  0  0  0  0  0  0
  146.7920  156.8050  133.4710 C   0  0  0  0  0  0  0  0  0  0  0  0
  147.0040  155.4820  133.6390 N   0  0  0  0  0  0  0  0  0  0  0  0
  146.1080  154.5590  134.2760 C   0  0  0  0  0  0  0  0  0  0  0  0
  145.5970  153.6260  133.5970 O   0  0  0  0  0  0  0  0  0  0  0  0
  145.7490  154.7430  135.6990 C   0  0  0  0  0  0  0  0  0  0  0  0
  144.9494  155.4590  135.9396 H   0  0  0  0  0  0  0  0  0  0  0  0
  146.3330  154.0960  136.7100 C   0  0  0  0  0  0  0  0  0  0  0  0
  145.9971  154.2959  137.7382 H   0  0  0  0  0  0  0  0  0  0  0  0
  147.3590  153.1720  136.4980 O   0  0  0  0  0  0  0  0  0  0  0  0
  148.2020  152.7200  137.5500 C   0  0  0  0  0  0  0  0  0  0  0  0
  147.7390  151.8493  138.0373 H   0  0  0  0  0  0  0  0  0  0  0  0
  149.1798  152.4413  137.1302 H   0  0  0  0  0  0  0  0  0  0  0  0
  148.3980  153.8050  138.5610 C   0  0  0  0  0  0  0  0  0  0  0  0
  149.4780  154.4500  138.5930 O   0  0  0  0  0  0  0  0  0  0  0  0
  147.3730  154.1320  139.4390 O   0  0  0  0  0  0  0  0  0  0  0  0
  1  2  1  0
  2  3  1  0
  3  4  2  0
  3  5  1  0
  5  6  2  0
  6  7  1  0
  6  8  1  0
  8  9  2  0
  9 10  1  0
  9 11  1  0
 11 12  1  0
 11 13  2  0
 13 14  1  0
 14 15  1  1
 14 16  1  0
 14 17  1  0
 17 18  1  0
 17 19  1  0
 17 20  1  0
 13 21  1  0
 21 22  1  0
 21 23  2  0
 23 24  1  0
 24 25  1  0
 25 26  2  0
 25 27  1  0
 27 28  1  0
 27 29  2  0
 29 30  1  0
 29 31  1  0
 31 32  1  0
 32 33  1  0
 32 34  1  0
 32 35  1  0
 35 36  2  0
 35 37  1  0
 24  5  1  0
 23  8  1  0
M  CHG  2   2  -1  37  -1
M  END
>  <UniqueID>  (50) 
49

>  <SMILES>  (50) 
C[C@@H](F)c1ccc2cc(C([NH-])=O)n(C(=O)/C=C\OCC(=O)[O-])c2c1

>  <Energy>  (50) 
70.29339441152848

>  <Genealogy>  (50) 
CC(F)c1ccc2cc(C([NH-])=O)n(C(=O)/C=C\OCC(=O)[O-])c2c1 (protonated)
C[C@@H](F)c1ccc2cc(C([NH-])=O)n(C(=O)/C=C\OCC(=O)[O-])c2c1 (chirality)
C[C@@H](F)c1ccc2cc(C([NH-])=O)n(C(=O)/C=C\OCC(=O)[O-])c2c1 (cis-trans isomerization)
C[C@@H](F)c1ccc2cc(C([NH-])=O)n(C(=O)/C=C\OCC(=O)[O-])c2c1 (3D coordinates assigned)
C[C@@H](F)c1ccc2cc(C([NH-])=O)n(C(=O)/C=C\OCC(=O)[O-])c2c1 (optimized conformer: 70.29339441152848 kcal/mol)

>  <smiles>  (50) 
CC(F)c1ccc2cc(C(N)=O)n(C(=O)/C=C\OCC(=O)O)c2c1

>  <score_type>  (50) 
oracle

>  <origin>  (50) 
adg

>  <m_score__min__energy>  (50) 
-6.25

>  <m_primary>  (50) 
energy

$$$$
50:0
     RDKit          3D

 51 53  0  0  0  0  0  0  0  0999 V2000
  141.5630  152.9770  135.3040 H   0  0  0  0  0  0  0  0  0  0  0  0
  142.2430  153.3870  135.9840 N   0  0  0  0  0  0  0  0  0  0  0  0
  142.8080  154.6800  135.7770 C   0  0  0  0  0  0  0  0  0  0  0  0
  143.9460  154.9320  136.2620 O   0  0  0  0  0  0  0  0  0  0  0  0
  142.0950  155.7220  134.9980 C   0  0  0  0  0  0  0  0  0  0  0  0
  142.1880  157.0820  135.3040 C   0  0  0  0  0  0  0  0  0  0  0  0
  142.7845  157.5448  136.1040 H   0  0  0  0  0  0  0  0  0  0  0  0
  141.3780  157.7200  134.3960 C   0  0  0  0  0  0  0  0  0  0  0  0
  141.0700  159.0760  134.2730 C   0  0  0  0  0  0  0  0  0  0  0  0
  141.5404  159.8252  134.9268 H   0  0  0  0  0  0  0  0  0  0  0  0
  140.1420  159.4550  133.2900 C   0  0  0  0  0  0  0  0  0  0  0  0
  139.8925  160.5181  133.1572 H   0  0  0  0  0  0  0  0  0  0  0  0
  139.5220  158.4780  132.4650 C   0  0  0  0  0  0  0  0  0  0  0  0
  138.5250  158.9200  131.4230 C   0  0  0  0  0  0  0  0  0  0  0  0
  138.6530  160.2810  131.2200 F   0  0  0  0  0  0  0  0  0  0  0  0
  137.2400  158.6480  131.8570 F   0  0  0  0  0  0  0  0  0  0  0  0
  138.7230  158.2650  130.2160 F   0  0  0  0  0  0  0  0  0  0  0  0
  139.8770  157.1100  132.6070 C   0  0  0  0  0  0  0  0  0  0  0  0
  139.4190  156.3400  131.9688 H   0  0  0  0  0  0  0  0  0  0  0  0
  140.8250  156.7650  133.5800 C   0  0  0  0  0  0  0  0  0  0  0  0
  141.2750  155.5300  133.9180 N   0  0  0  0  0  0  0  0  0  0  0  0
  140.9460  154.2910  133.2560 C   0  0  0  0  0  0  0  0  0  0  0  0
  139.7440  153.9060  133.2070 O   0  0  0  0  0  0  0  0  0  0  0  0
  142.0220  153.4450  132.5920 C   0  0  0  0  0  0  0  0  0  0  0  0
  141.5419  152.8205  131.8242 H   0  0  0  0  0  0  0  0  0  0  0  0
  142.7594  154.1485  132.1781 H   0  0  0  0  0  0  0  0  0  0  0  0
  142.7670  152.5510  133.5170 N   0  0  1  0  0  0  0  0  0  0  0  0
  142.7170  153.0100  134.4600 H   0  0  0  0  0  0  0  0  0  0  0  0
  142.1120  151.2620  133.6180 C   0  0  0  0  0  0  0  0  0  0  0  0
  141.3540  151.0010  134.5930 O   0  0  0  0  0  0  0  0  0  0  0  0
  142.3230  150.2320  132.5830 C   0  0  0  0  0  0  0  0  0  0  0  0
  143.3386  149.8317  132.4476 H   0  0  0  0  0  0  0  0  0  0  0  0
  141.3470  149.7580  131.8000 C   0  0  0  0  0  0  0  0  0  0  0  0
  141.6234  149.1317  130.9390 H   0  0  0  0  0  0  0  0  0  0  0  0
  139.9060  150.0380  132.0390 C   0  0  0  0  0  0  0  0  0  0  0  0
  139.6464  150.8686  132.7118 H   0  0  0  0  0  0  0  0  0  0  0  0
  138.9000  149.3380  131.4830 C   0  0  0  0  0  0  0  0  0  0  0  0
  137.8812  149.5233  131.8540 H   0  0  0  0  0  0  0  0  0  0  0  0
  139.0690  148.3400  130.4110 C   0  0  0  0  0  0  0  0  0  0  0  0
  139.5190  147.1960  130.6910 O   0  0  0  0  0  0  0  0  0  0  0  0
  138.6820  148.6230  129.1040 O   0  0  0  0  0  0  0  0  0  0  0  0
  144.1970  152.3830  133.1510 C   0  0  0  0  0  0  0  0  0  0  0  0
  144.2649  151.2910  133.2646 H   0  0  0  0  0  0  0  0  0  0  0  0
  144.6120  153.1200  131.8780 C   0  0  0  0  0  0  0  0  0  0  0  0
  145.1171  152.4737  131.1451 H   0  0  0  0  0  0  0  0  0  0  0  0
  143.8282  153.5638  131.2466 H   0  0  0  0  0  0  0  0  0  0  0  0
  145.5290  154.0150  132.5940 N   0  0  0  0  0  0  0  0  0  0  0  0
  146.5140  153.7240  132.3680 H   0  0  0  0  0  0  0  0  0  0  0  0
  145.1360  153.3660  133.8510 C   0  0  0  0  0  0  0  0  0  0  0  0
  145.9733  152.8757  134.3691 H   0  0  0  0  0  0  0  0  0  0  0  0
  144.7359  153.9897  134.6640 H   0  0  0  0  0  0  0  0  0  0  0  0
  1  2  1  0
  2  3  1  0
  3  4  2  0
  3  5  1  0
  5  6  2  0
  6  7  1  0
  6  8  1  0
  8  9  2  0
  9 10  1  0
  9 11  1  0
 11 12  1  0
 11 13  2  0
 13 14  1  0
 14 15  1  0
 14 16  1  0
 14 17  1  0
 13 18  1  0
 18 19  1  0
 18 20  2  0
 20 21  1  0
 21 22  1  0
 22 23  2  0
 22 24  1  0
 24 25  1  0
 24 26  1  0
 24 27  1  0
 27 28  1  1
 27 29  1  0
 29 30  2  0
 29 31  1  0
 31 32  1  0
 31 33  2  0
 33 34  1  0
 33 35  1  0
 35 36  1  0
 35 37  2  0
 37 38  1  0
 37 39  1  0
 39 40  2  0
 39 41  1  0
 27 42  1  0
 42 43  1  0
 42 44  1  0
 44 45  1  0
 44 46  1  0
 44 47  1  0
 47 48  1  0
 47 49  1  0
 49 50  1  0
 49 51  1  0
 21  5  1  0
 49 42  1  0
 20  8  1  0
M  CHG  3   2  -1  27   1  41  -1
M  END
>  <UniqueID>  (51) 
50

>  <SMILES>  (51) 
[NH-]C(=O)c1cc2ccc(C(F)(F)F)cc2n1C(=O)C[N@@H+](C(=O)C=C/C=C\C(=O)[O-])C1CNC1

>  <Energy>  (51) 
172.64000737937528

>  <Genealogy>  (51) 
[NH-]C(=O)c1cc2ccc(C(F)(F)F)cc2n1C(=O)C[NH+](C(=O)C=CC=CC(=O)[O-])C1CNC1 (protonated)
[NH-]C(=O)c1cc2ccc(C(F)(F)F)cc2n1C(=O)C[N@@H+](C(=O)C=CC=CC(=O)[O-])C1CNC1 (chirality)
[NH-]C(=O)c1cc2ccc(C(F)(F)F)cc2n1C(=O)C[N@@H+](C(=O)C=C/C=C\C(=O)[O-])C1CNC1 (cis-trans isomerization)
[NH-]C(=O)c1cc2ccc(C(F)(F)F)cc2n1C(=O)C[N@@H+](C(=O)C=C/C=C\C(=O)[O-])C1CNC1 (3D coordinates assigned)
[NH-]C(=O)c1cc2ccc(C(F)(F)F)cc2n1C(=O)C[N@@H+](C(=O)C=C/C=C\C(=O)[O-])C1CNC1 (nonaromatic ring conformer: 172.64000737937528 kcal/mol)

>  <smiles>  (51) 
NC(=O)c1cc2ccc(C(F)(F)F)cc2n1C(=O)CN(C(=O)C=CC=CC(=O)O)C1CNC1

>  <score_type>  (51) 
oracle

>  <origin>  (51) 
adg

>  <m_score__min__energy>  (51) 
-8.7599999999999998

>  <m_primary>  (51) 
energy

$$$$
51:0
     RDKit          3D

 54 55  0  0  0  0  0  0  0  0999 V2000
  149.6010  150.8910  133.6850 C   0  0  0  0  0  0  0  0  0  0  0  0
  148.5000  151.5690  132.9680 N   0  0  0  0  0  0  0  0  0  0  0  0
  148.0200  150.7070  131.8720 C   0  0  0  0  0  0  0  0  0  0  0  0
  148.9280  152.8810  132.4340 C   0  0  0  0  0  0  0  0  0  0  0  0
  148.2380  154.0190  133.1330 C   0  0  0  0  0  0  0  0  0  0  0  0
  148.5410  155.2110  132.8390 O   0  0  0  0  0  0  0  0  0  0  0  0
  147.3100  153.7460  134.1460 O   0  0  0  0  0  0  0  0  0  0  0  0
  147.6320  153.8380  135.5330 C   0  0  0  0  0  0  0  0  0  0  0  0
  146.6530  154.6280  136.2050 O   0  0  0  0  0  0  0  0  0  0  0  0
  145.3690  154.8320  135.6920 C   0  0  0  0  0  0  0  0  0  0  0  0
  144.9980  155.9830  135.3440 O   0  0  0  0  0  0  0  0  0  0  0  0
  144.5100  153.7390  135.5510 O   0  0  0  0  0  0  0  0  0  0  0  0
  142.7970  153.8940  135.5480 P   0  0  2  0  0  0  0  0  0  0  0  0
  142.3970  155.0420  136.4480 O   0  0  0  0  0  0  0  0  0  0  0  0
  142.1190  152.4670  136.1530 O   0  0  0  0  0  0  0  0  0  0  0  0
  142.2010  154.1570  133.9740 O   0  0  0  0  0  0  0  0  0  0  0  0
  143.1860  153.7810  133.0430 C   0  0  0  0  0  0  0  0  0  0  0  0
  143.5360  154.9180  132.2630 O   0  0  0  0  0  0  0  0  0  0  0  0
  144.6080  155.7570  132.5940 C   0  0  0  0  0  0  0  0  0  0  0  0
  145.7950  155.3290  132.5180 O   0  0  0  0  0  0  0  0  0  0  0  0
  144.3590  157.0970  133.0510 N   0  0  0  0  0  0  0  0  0  0  0  0
  145.2750  158.0530  133.3760 C   0  0  0  0  0  0  0  0  0  0  0  0
  146.7380  157.8570  133.4750 C   0  0  0  0  0  0  0  0  0  0  0  0
  147.2620  156.8750  134.3710 N   0  0  0  0  0  0  0  0  0  0  0  0
  147.5310  158.5340  132.7670 O   0  0  0  0  0  0  0  0  0  0  0  0
  144.6400  159.2490  133.7070 C   0  0  0  0  0  0  0  0  0  0  0  0
  143.2970  158.9940  133.5760 C   0  0  0  0  0  0  0  0  0  0  0  0
  142.2060  159.8300  133.7830 C   0  0  0  0  0  0  0  0  0  0  0  0
  140.9200  159.3060  133.5510 C   0  0  0  0  0  0  0  0  0  0  0  0
  140.7500  157.9710  133.0950 C   0  0  0  0  0  0  0  0  0  0  0  0
  139.3620  157.4000  132.8900 C   0  0  0  0  0  0  0  0  0  0  0  0
  139.4370  156.0170  132.8510 F   0  0  0  0  0  0  0  0  0  0  0  0
  138.5140  157.7780  133.9180 F   0  0  0  0  0  0  0  0  0  0  0  0
  138.8220  157.8520  131.6990 F   0  0  0  0  0  0  0  0  0  0  0  0
  141.8870  157.1480  132.9180 C   0  0  0  0  0  0  0  0  0  0  0  0
  143.1520  157.6900  133.1750 C   0  0  0  0  0  0  0  0  0  0  0  0
  149.4458  150.9866  134.7698 H   0  0  0  0  0  0  0  0  0  0  0  0
  149.6172  149.8262  133.4093 H   0  0  0  0  0  0  0  0  0  0  0  0
  150.5591  151.3558  133.4093 H   0  0  0  0  0  0  0  0  0  0  0  0
  147.7050  151.7110  133.6370 H   0  0  0  0  0  0  0  0  0  0  0  0
  147.5257  149.8193  132.2933 H   0  0  0  0  0  0  0  0  0  0  0  0
  147.3035  151.2663  131.2525 H   0  0  0  0  0  0  0  0  0  0  0  0
  148.8728  150.3924  131.2525 H   0  0  0  0  0  0  0  0  0  0  0  0
  150.0144  152.9845  132.5718 H   0  0  0  0  0  0  0  0  0  0  0  0
  148.6597  152.9208  131.3680 H   0  0  0  0  0  0  0  0  0  0  0  0
  147.6507  152.8292  135.9712 H   0  0  0  0  0  0  0  0  0  0  0  0
  148.6193  154.3097  135.6461 H   0  0  0  0  0  0  0  0  0  0  0  0
  144.0745  153.4092  133.5744 H   0  0  0  0  0  0  0  0  0  0  0  0
  142.7995  152.9842  132.3905 H   0  0  0  0  0  0  0  0  0  0  0  0
  146.9590  155.8810  134.3140 H   0  0  0  0  0  0  0  0  0  0  0  0
  145.1135  160.1949  134.0087 H   0  0  0  0  0  0  0  0  0  0  0  0
  142.3431  160.8688  134.1177 H   0  0  0  0  0  0  0  0  0  0  0  0
  140.0363  159.9376  133.7248 H   0  0  0  0  0  0  0  0  0  0  0  0
  141.7795  156.1049  132.5857 H   0  0  0  0  0  0  0  0  0  0  0  0
  1  2  1  0
  2  3  1  0
  2  4  1  0
  4  5  1  0
  5  6  2  0
  5  7  1  0
  7  8  1  0
  8  9  1  0
  9 10  1  0
 10 11  2  0
 10 12  1  0
 12 13  1  0
 13 14  2  0
 13 15  1  1
 13 16  1  0
 16 17  1  0
 17 18  1  0
 18 19  1  0
 19 20  2  0
 19 21  1  0
 21 22  1  0
 22 23  1  0
 23 24  1  0
 23 25  2  0
 22 26  2  0
 26 27  1  0
 27 28  2  0
 28 29  1  0
 29 30  2  0
 30 31  1  0
 31 32  1  0
 31 33  1  0
 31 34  1  0
 30 35  1  0
 35 36  2  0
 36 21  1  0
 36 27  1  0
  1 37  1  0
  1 38  1  0
  1 39  1  0
  2 40  1  0
  3 41  1  0
  3 42  1  0
  3 43  1  0
  4 44  1  0
  4 45  1  0
  8 46  1  0
  8 47  1  0
 17 48  1  0
 17 49  1  0
 24 50  1  0
 26 51  1  0
 28 52  1  0
 29 53  1  0
 35 54  1  0
M  CHG  3   2   1  15  -1  24  -1
M  END
>  <UniqueID>  (52) 
51

>  <SMILES>  (52) 
C[NH+](C)CC(=O)OCOC(=O)O[P@](=O)([O-])OCOC(=O)n1c(C([NH-])=O)cc2ccc(C(F)(F)F)cc21

>  <Energy>  (52) 
86.50776678620404

>  <Genealogy>  (52) 
C[NH+](C)CC(=O)OCOC(=O)OP(=O)([O-])OCOC(=O)n1c(C([NH-])=O)cc2ccc(C(F)(F)F)cc21 (protonated)
C[NH+](C)CC(=O)OCOC(=O)O[P@](=O)([O-])OCOC(=O)n1c(C([NH-])=O)cc2ccc(C(F)(F)F)cc21 (chirality)
C[NH+](C)CC(=O)OCOC(=O)O[P@](=O)([O-])OCOC(=O)n1c(C([NH-])=O)cc2ccc(C(F)(F)F)cc21 (3D coordinates assigned)
C[NH+](C)CC(=O)OCOC(=O)O[P@](=O)([O-])OCOC(=O)n1c(C([NH-])=O)cc2ccc(C(F)(F)F)cc21 (optimized conformer: 86.50776678620404 kcal/mol)

>  <smiles>  (52) 
CN(C)CC(=O)OCOC(=O)OP(=O)(O)OCOC(=O)n1c(C(N)=O)cc2ccc(C(F)(F)F)cc21

>  <score_type>  (52) 
oracle

>  <origin>  (52) 
adg

>  <m_score__min__energy>  (52) 
-4.7699999999999996

>  <m_primary>  (52) 
energy

$$$$
52:0
     RDKit          3D

 31 32  0  0  0  0  0  0  0  0999 V2000
  149.2290  156.2840  132.6340 N   0  0  0  0  0  0  0  0  0  0  0  0
  148.0360  155.5470  132.8870 C   0  0  0  0  0  0  0  0  0  0  0  0
  148.0750  154.2880  132.8730 O   0  0  0  0  0  0  0  0  0  0  0  0
  146.7520  156.2380  133.1240 C   0  0  0  0  0  0  0  0  0  0  0  0
  145.5180  155.5900  133.1520 C   0  0  0  0  0  0  0  0  0  0  0  0
  144.5840  156.5900  133.3150 C   0  0  0  0  0  0  0  0  0  0  0  0
  143.1980  156.5180  133.4050 C   0  0  0  0  0  0  0  0  0  0  0  0
  142.4870  157.7170  133.5850 C   0  0  0  0  0  0  0  0  0  0  0  0
  143.1690  158.9570  133.6910 C   0  0  0  0  0  0  0  0  0  0  0  0
  142.3940  160.2410  133.8420 C   0  0  0  0  0  0  0  0  0  0  0  0
  141.7760  160.2950  135.0800 F   0  0  0  0  0  0  0  0  0  0  0  0
  143.2330  161.3350  133.7280 F   0  0  0  0  0  0  0  0  0  0  0  0
  141.4290  160.3090  132.8540 F   0  0  0  0  0  0  0  0  0  0  0  0
  144.5780  158.9890  133.5670 C   0  0  0  0  0  0  0  0  0  0  0  0
  145.2570  157.7810  133.3820 C   0  0  0  0  0  0  0  0  0  0  0  0
  146.5850  157.5820  133.2720 N   0  0  0  0  0  0  0  0  0  0  0  0
  147.5990  158.5910  133.3830 C   0  0  0  0  0  0  0  0  0  0  0  0
  148.4780  158.4960  134.2810 O   0  0  0  0  0  0  0  0  0  0  0  0
  147.6850  159.6960  132.3760 C   0  0  0  0  0  0  0  0  0  0  0  0
  149.1870  159.5130  131.3670 P   0  0  1  0  0  0  0  0  0  0  0  0
  148.8510  158.8120  130.0690 O   0  0  0  0  0  0  0  0  0  0  0  0
  149.8100  161.0470  131.0240 O   0  0  0  0  0  0  0  0  0  0  0  0
  150.3500  158.6200  132.2140 O   0  0  0  0  0  0  0  0  0  0  0  0
  149.6330  156.9180  133.3570 H   0  0  0  0  0  0  0  0  0  0  0  0
  145.3299  154.5099  133.0629 H   0  0  0  0  0  0  0  0  0  0  0  0
  142.6746  155.5529  133.3374 H   0  0  0  0  0  0  0  0  0  0  0  0
  141.3888  157.6939  133.6444 H   0  0  0  0  0  0  0  0  0  0  0  0
  145.1261  159.9415  133.6150 H   0  0  0  0  0  0  0  0  0  0  0  0
  146.8015  159.6605  131.7217 H   0  0  0  0  0  0  0  0  0  0  0  0
  147.7235  160.6601  132.9043 H   0  0  0  0  0  0  0  0  0  0  0  0
  149.8360  157.9370  132.7130 H   0  0  0  0  0  0  0  0  0  0  0  0
  1  2  1  0
  2  3  2  0
  2  4  1  0
  4  5  2  0
  5  6  1  0
  6  7  2  0
  7  8  1  0
  8  9  2  0
  9 10  1  0
 10 11  1  0
 10 12  1  0
 10 13  1  0
  9 14  1  0
 14 15  2  0
 15 16  1  0
 16 17  1  0
 17 18  2  0
 17 19  1  0
 19 20  1  0
 20 21  2  0
 20 22  1  6
 20 23  1  0
 16  4  1  0
 15  6  1  0
  1 24  1  0
  5 25  1  0
  7 26  1  0
  8 27  1  0
 14 28  1  0
 19 29  1  0
 19 30  1  0
 23 31  1  0
M  CHG  2   1  -1  22  -1
M  END
>  <UniqueID>  (53) 
52

>  <SMILES>  (53) 
[NH-]C(=O)c1cc2ccc(C(F)(F)F)cc2n1C(=O)C[P@@](=O)([O-])O

>  <Energy>  (53) 
65.19587136514576

>  <Genealogy>  (53) 
[NH-]C(=O)c1cc2ccc(C(F)(F)F)cc2n1C(=O)CP(=O)([O-])O (protonated)
[NH-]C(=O)c1cc2ccc(C(F)(F)F)cc2n1C(=O)C[P@@](=O)([O-])O (chirality)
[NH-]C(=O)c1cc2ccc(C(F)(F)F)cc2n1C(=O)C[P@@](=O)([O-])O (3D coordinates assigned)
[NH-]C(=O)c1cc2ccc(C(F)(F)F)cc2n1C(=O)C[P@@](=O)([O-])O (optimized conformer: 65.19587136514576 kcal/mol)

>  <smiles>  (53) 
NC(=O)c1cc2ccc(C(F)(F)F)cc2n1C(=O)CP(=O)(O)O

>  <score_type>  (53) 
oracle

>  <origin>  (53) 
adg

>  <m_score__min__energy>  (53) 
-5.6600000000000001

>  <m_primary>  (53) 
energy

$$$$
53:0
     RDKit          3D

 43 44  0  0  0  0  0  0  0  0999 V2000
  148.2630  154.9780  132.6500 C   0  0  0  0  0  0  0  0  0  0  0  0
  147.8550  156.4080  132.8390 C   0  0  0  0  0  0  0  0  0  0  0  0
  148.8100  157.4420  132.6860 C   0  0  0  0  0  0  0  0  0  0  0  0
  148.4370  158.7890  132.8400 C   0  0  0  0  0  0  0  0  0  0  0  0
  147.1020  159.0680  133.1230 C   0  0  0  0  0  0  0  0  0  0  0  0
  146.4760  160.2730  133.3400 C   0  0  0  0  0  0  0  0  0  0  0  0
  145.1400  159.9580  133.5820 C   0  0  0  0  0  0  0  0  0  0  0  0
  144.0900  160.9740  133.8140 C   0  0  0  0  0  0  0  0  0  0  0  0
  142.7380  160.5910  134.0570 N   0  0  0  0  0  0  0  0  0  0  0  0
  144.3840  162.1980  133.7680 O   0  0  0  0  0  0  0  0  0  0  0  0
  144.9490  158.6110  133.5190 N   0  0  0  0  0  0  0  0  0  0  0  0
  143.7340  157.8890  133.7760 C   0  0  0  0  0  0  0  0  0  0  0  0
  143.3370  157.7460  134.9650 O   0  0  0  0  0  0  0  0  0  0  0  0
  142.8770  157.4190  132.6360 C   0  0  0  0  0  0  0  0  0  0  0  0
  141.5390  158.1200  132.5890 C   0  0  0  0  0  0  0  0  0  0  0  0
  140.9950  158.2730  131.5020 O   0  0  0  0  0  0  0  0  0  0  0  0
  140.8650  158.5240  133.8070 N   0  0  1  0  0  0  0  0  0  0  0  0
  139.8800  159.5880  133.5530 C   0  0  0  0  0  0  0  0  0  0  0  0
  140.2370  157.3810  134.4170 C   0  0  0  0  0  0  0  0  0  0  0  0
  140.3850  156.2280  133.9190 O   0  0  0  0  0  0  0  0  0  0  0  0
  139.4590  157.5580  135.5680 O   0  0  0  0  0  0  0  0  0  0  0  0
  139.9820  157.4840  136.8930 C   0  0  0  0  0  0  0  0  0  0  0  0
  140.9810  158.5750  137.1210 C   0  0  0  0  0  0  0  0  0  0  0  0
  141.7220  158.5540  138.1380 O   0  0  0  0  0  0  0  0  0  0  0  0
  141.0860  159.6230  136.2160 O   0  0  0  0  0  0  0  0  0  0  0  0
  146.1600  158.0790  133.2410 C   0  0  0  0  0  0  0  0  0  0  0  0
  146.5080  156.7300  133.1110 C   0  0  0  0  0  0  0  0  0  0  0  0
  148.3987  154.5025  133.6326 H   0  0  0  0  0  0  0  0  0  0  0  0
  147.4812  154.4447  132.0894 H   0  0  0  0  0  0  0  0  0  0  0  0
  149.2085  154.9375  132.0894 H   0  0  0  0  0  0  0  0  0  0  0  0
  149.8530  157.1894  132.4445 H   0  0  0  0  0  0  0  0  0  0  0  0
  149.1764  159.5972  132.7401 H   0  0  0  0  0  0  0  0  0  0  0  0
  146.9328  161.2735  133.3256 H   0  0  0  0  0  0  0  0  0  0  0  0
  142.5130  159.7340  134.6100 H   0  0  0  0  0  0  0  0  0  0  0  0
  143.4090  157.6111  131.6925 H   0  0  0  0  0  0  0  0  0  0  0  0
  142.6864  156.3456  132.7823 H   0  0  0  0  0  0  0  0  0  0  0  0
  141.5650  158.9100  134.4800 H   0  0  0  0  0  0  0  0  0  0  0  0
  139.5131  159.9844  134.5113 H   0  0  0  0  0  0  0  0  0  0  0  0
  140.3545  160.3975  132.9790 H   0  0  0  0  0  0  0  0  0  0  0  0
  139.0364  159.1772  132.9790 H   0  0  0  0  0  0  0  0  0  0  0  0
  139.1583  157.5902  137.6143 H   0  0  0  0  0  0  0  0  0  0  0  0
  140.4785  156.5116  137.0270 H   0  0  0  0  0  0  0  0  0  0  0  0
  145.7503  155.9398  133.2181 H   0  0  0  0  0  0  0  0  0  0  0  0
  1  2  1  0
  2  3  2  0
  3  4  1  0
  4  5  2  0
  5  6  1  0
  6  7  2  0
  7  8  1  0
  8  9  1  0
  8 10  2  0
  7 11  1  0
 11 12  1  0
 12 13  2  0
 12 14  1  0
 14 15  1  0
 15 16  2  0
 15 17  1  0
 17 18  1  0
 17 19  1  0
 19 20  2  0
 19 21  1  0
 21 22  1  0
 22 23  1  0
 23 24  2  0
 23 25  1  0
 11 26  1  0
 26 27  2  0
 27  2  1  0
 26  5  1  0
  1 28  1  0
  1 29  1  0
  1 30  1  0
  3 31  1  0
  4 32  1  0
  6 33  1  0
  9 34  1  0
 14 35  1  0
 14 36  1  0
 17 37  1  1
 18 38  1  0
 18 39  1  0
 18 40  1  0
 22 41  1  0
 22 42  1  0
 27 43  1  0
M  CHG  3   9  -1  17   1  25  -1
M  END
>  <UniqueID>  (54) 
53

>  <SMILES>  (54) 
Cc1ccc2cc(C([NH-])=O)n(C(=O)CC(=O)[NH+](C)C(=O)OCC(=O)[O-])c2c1

>  <Energy>  (54) 
79.99214223548016

>  <Genealogy>  (54) 
Cc1ccc2cc(C([NH-])=O)n(C(=O)CC(=O)[NH+](C)C(=O)OCC(=O)[O-])c2c1 (protonated)
Cc1ccc2cc(C([NH-])=O)n(C(=O)CC(=O)[NH+](C)C(=O)OCC(=O)[O-])c2c1 (3D coordinates assigned)
Cc1ccc2cc(C([NH-])=O)n(C(=O)CC(=O)[NH+](C)C(=O)OCC(=O)[O-])c2c1 (optimized conformer: 79.99214223548016 kcal/mol)

>  <smiles>  (54) 
Cc1ccc2cc(C(N)=O)n(C(=O)CC(=O)N(C)C(=O)OCC(=O)O)c2c1

>  <score_type>  (54) 
oracle

>  <origin>  (54) 
adg

>  <m_score__min__energy>  (54) 
-5.7800000000000002

>  <m_primary>  (54) 
energy

$$$$
54:0
     RDKit          3D

 31 32  0  0  0  0  0  0  0  0999 V2000
  138.5970  158.1950  131.5890 N   0  0  0  0  0  0  0  0  0  0  0  0
  139.8470  158.6510  132.0970 C   0  0  0  0  0  0  0  0  0  0  0  0
  140.5940  159.3530  131.3640 O   0  0  0  0  0  0  0  0  0  0  0  0
  140.2480  158.3620  133.4890 C   0  0  0  0  0  0  0  0  0  0  0  0
  140.6050  159.3510  134.4040 C   0  0  0  0  0  0  0  0  0  0  0  0
  140.8100  158.6890  135.5930 C   0  0  0  0  0  0  0  0  0  0  0  0
  141.2060  159.1790  136.8330 C   0  0  0  0  0  0  0  0  0  0  0  0
  141.3770  158.2600  137.8810 C   0  0  0  0  0  0  0  0  0  0  0  0
  141.1430  156.8760  137.6780 C   0  0  0  0  0  0  0  0  0  0  0  0
  141.3890  155.8910  138.7930 C   0  0  0  0  0  0  0  0  0  0  0  0
  142.3500  154.9670  138.4250 F   0  0  0  0  0  0  0  0  0  0  0  0
  140.2280  155.2070  139.1080 F   0  0  0  0  0  0  0  0  0  0  0  0
  141.8260  156.5740  139.9130 F   0  0  0  0  0  0  0  0  0  0  0  0
  140.7650  156.4140  136.3940 C   0  0  0  0  0  0  0  0  0  0  0  0
  140.5850  157.3550  135.3740 C   0  0  0  0  0  0  0  0  0  0  0  0
  140.2420  157.1370  134.0850 N   0  0  0  0  0  0  0  0  0  0  0  0
  140.0330  155.8570  133.4670 C   0  0  0  0  0  0  0  0  0  0  0  0
  138.9020  155.5680  132.9910 O   0  0  0  0  0  0  0  0  0  0  0  0
  141.0920  154.8940  133.4440 N   0  0  0  0  0  0  0  0  0  0  0  0
  140.8720  153.4530  133.4240 C   0  0  0  0  0  0  0  0  0  0  0  0
  141.8360  152.6430  134.7370 P   0  0  0  0  0  0  0  0  0  0  0  0
  142.0930  153.6330  135.8500 O   0  0  0  0  0  0  0  0  0  0  0  0
  143.3160  152.1190  134.1070 O   0  0  0  0  0  0  0  0  0  0  0  0
  140.9870  151.3170  135.3540 O   0  0  0  0  0  0  0  0  0  0  0  0
  138.1430  157.3370  131.9720 H   0  0  0  0  0  0  0  0  0  0  0  0
  140.7022  160.4304  134.2159 H   0  0  0  0  0  0  0  0  0  0  0  0
  141.3800  160.2540  136.9881 H   0  0  0  0  0  0  0  0  0  0  0  0
  141.6962  158.6178  138.8710 H   0  0  0  0  0  0  0  0  0  0  0  0
  140.6164  155.3410  136.2029 H   0  0  0  0  0  0  0  0  0  0  0  0
  139.8028  153.2479  133.5809 H   0  0  0  0  0  0  0  0  0  0  0  0
  141.1951  153.0573  132.4498 H   0  0  0  0  0  0  0  0  0  0  0  0
  1  2  1  0
  2  3  2  0
  2  4  1  0
  4  5  2  0
  5  6  1  0
  6  7  2  0
  7  8  1  0
  8  9  2  0
  9 10  1  0
 10 11  1  0
 10 12  1  0
 10 13  1  0
  9 14  1  0
 14 15  2  0
 15 16  1  0
 16 17  1  0
 17 18  2  0
 17 19  1  0
 19 20  1  0
 20 21  1  0
 21 22  2  0
 21 23  1  0
 21 24  1  0
 16  4  1  0
 15  6  1  0
  1 25  1  0
  5 26  1  0
  7 27  1  0
  8 28  1  0
 14 29  1  0
 20 30  1  0
 20 31  1  0
M  CHG  4   1  -1  19  -1  23  -1  24  -1
M  END
>  <UniqueID>  (55) 
54

>  <SMILES>  (55) 
[NH-]C(=O)c1cc2ccc(C(F)(F)F)cc2n1C(=O)[N-]CP(=O)([O-])[O-]

>  <Energy>  (55) 
66.06695272857442

>  <Genealogy>  (55) 
[NH-]C(=O)c1cc2ccc(C(F)(F)F)cc2n1C(=O)[N-]CP(=O)([O-])[O-] (protonated)
[NH-]C(=O)c1cc2ccc(C(F)(F)F)cc2n1C(=O)[N-]CP(=O)([O-])[O-] (3D coordinates assigned)
[NH-]C(=O)c1cc2ccc(C(F)(F)F)cc2n1C(=O)[N-]CP(=O)([O-])[O-] (optimized conformer: 66.06695272857442 kcal/mol)

>  <smiles>  (55) 
NC(=O)c1cc2ccc(C(F)(F)F)cc2n1C(=O)NCP(=O)(O)O

>  <score_type>  (55) 
oracle

>  <origin>  (55) 
adg

>  <m_score__min__energy>  (55) 
-6.1900000000000004

>  <m_primary>  (55) 
energy

$$$$
55:0
     RDKit          3D

 82 84  0  0  0  0  0  0  0  0999 V2000
  139.1230  159.4240  131.5150 C   0  0  0  0  0  0  0  0  0  0  0  0
  140.0210  158.9220  132.6060 C   0  0  0  0  0  0  0  0  0  0  0  0
  140.5950  159.8270  133.5300 C   0  0  0  0  0  0  0  0  0  0  0  0
  141.3670  159.3550  134.6030 C   0  0  0  0  0  0  0  0  0  0  0  0
  141.5860  157.9840  134.6950 C   0  0  0  0  0  0  0  0  0  0  0  0
  142.2010  157.2590  135.6840 C   0  0  0  0  0  0  0  0  0  0  0  0
  142.0280  155.9250  135.3230 C   0  0  0  0  0  0  0  0  0  0  0  0
  142.3080  154.8120  136.2440 C   0  0  0  0  0  0  0  0  0  0  0  0
  143.6560  154.4690  136.5540 N   0  0  0  0  0  0  0  0  0  0  0  0
  141.3640  154.2280  136.8390 O   0  0  0  0  0  0  0  0  0  0  0  0
  141.3780  155.8250  134.1320 N   0  0  0  0  0  0  0  0  0  0  0  0
  141.1670  154.6260  133.3590 C   0  0  0  0  0  0  0  0  0  0  0  0
  140.0540  154.4480  132.7950 O   0  0  0  0  0  0  0  0  0  0  0  0
  142.2020  153.6140  133.2460 N   0  0  0  0  0  0  0  0  0  0  0  0
  143.5850  154.0700  132.9850 C   0  0  0  0  0  0  0  0  0  0  0  0
  144.7010  153.6420  133.9540 C   0  0  0  0  0  0  0  0  0  0  0  0
  145.9080  153.4460  133.2520 O   0  0  0  0  0  0  0  0  0  0  0  0
  147.2090  154.2910  134.0400 Si  0  0  0  0  0  4  0  0  0  0  0  0
  147.2930  153.9190  135.8810 C   0  0  0  0  0  0  0  0  0  0  0  0
  148.8320  153.7510  133.2850 C   0  0  0  0  0  0  0  0  0  0  0  0
  146.9610  156.1620  133.7900 C   0  0  0  0  0  0  0  0  0  0  0  0
  146.9760  156.4850  132.2870 C   0  0  0  0  0  0  0  0  0  0  0  0
  145.6160  156.5980  134.3960 C   0  0  0  0  0  0  0  0  0  0  0  0
  148.1030  156.9250  134.4800 C   0  0  0  0  0  0  0  0  0  0  0  0
  143.7220  155.3950  132.2310 C   0  0  0  0  0  0  0  0  0  0  0  0
  143.9940  154.1050  131.5040 C   0  0  0  0  0  0  0  0  0  0  0  0
  141.8730  152.1640  133.4200 C   0  0  0  0  0  0  0  0  0  0  0  0
  143.1030  151.2890  133.0940 C   0  0  0  0  0  0  0  0  0  0  0  0
  141.4620  151.8880  134.8830 C   0  0  0  0  0  0  0  0  0  0  0  0
  140.7460  151.7190  132.4900 C   0  0  0  0  0  0  0  0  0  0  0  0
  139.5910  152.2040  132.6320 O   0  0  0  0  0  0  0  0  0  0  0  0
  140.9900  150.7450  131.5090 O   0  0  0  0  0  0  0  0  0  0  0  0
  140.4800  149.4030  131.4950 C   0  0  0  0  0  0  0  0  0  0  0  0
  140.6670  148.8610  130.0690 C   0  0  0  0  0  0  0  0  0  0  0  0
  138.9780  149.4040  131.8370 C   0  0  0  0  0  0  0  0  0  0  0  0
  141.2570  148.5000  132.4740 C   0  0  0  0  0  0  0  0  0  0  0  0
  141.0740  157.0960  133.7820 C   0  0  0  0  0  0  0  0  0  0  0  0
  140.2310  157.5340  132.7590 C   0  0  0  0  0  0  0  0  0  0  0  0
  138.2448  159.9149  131.9597 H   0  0  0  0  0  0  0  0  0  0  0  0
  139.6710  160.1466  130.8925 H   0  0  0  0  0  0  0  0  0  0  0  0
  138.7945  158.5787  130.8925 H   0  0  0  0  0  0  0  0  0  0  0  0
  140.4350  160.9083  133.4065 H   0  0  0  0  0  0  0  0  0  0  0  0
  141.7859  160.0474  135.3480 H   0  0  0  0  0  0  0  0  0  0  0  0
  142.7199  157.6481  136.5724 H   0  0  0  0  0  0  0  0  0  0  0  0
  144.2520  155.1060  137.1280 H   0  0  0  0  0  0  0  0  0  0  0  0
  144.8448  154.4265  134.7116 H   0  0  0  0  0  0  0  0  0  0  0  0
  144.4116  152.6985  134.4398 H   0  0  0  0  0  0  0  0  0  0  0  0
  147.0857  154.8370  136.4504 H   0  0  0  0  0  0  0  0  0  0  0  0
  146.5451  153.1533  136.1349 H   0  0  0  0  0  0  0  0  0  0  0  0
  148.2973  153.5490  136.1349 H   0  0  0  0  0  0  0  0  0  0  0  0
  149.5477  153.5129  134.0857 H   0  0  0  0  0  0  0  0  0  0  0  0
  148.6681  152.8590  132.6626 H   0  0  0  0  0  0  0  0  0  0  0  0
  149.2352  154.5634  132.6626 H   0  0  0  0  0  0  0  0  0  0  0  0
  147.0266  157.5748  132.1467 H   0  0  0  0  0  0  0  0  0  0  0  0
  147.8532  156.0140  131.8195 H   0  0  0  0  0  0  0  0  0  0  0  0
  146.0589  156.0973  131.8195 H   0  0  0  0  0  0  0  0  0  0  0  0
  145.6841  156.5759  135.4937 H   0  0  0  0  0  0  0  0  0  0  0  0
  145.3780  157.6193  134.0638 H   0  0  0  0  0  0  0  0  0  0  0  0
  144.8241  155.9106  134.0638 H   0  0  0  0  0  0  0  0  0  0  0  0
  147.9883  156.8484  135.5713 H   0  0  0  0  0  0  0  0  0  0  0  0
  149.0679  156.4895  134.1812 H   0  0  0  0  0  0  0  0  0  0  0  0
  148.0700  157.9831  134.1812 H   0  0  0  0  0  0  0  0  0  0  0  0
  142.8242  155.9821  131.9876 H   0  0  0  0  0  0  0  0  0  0  0  0
  144.2883  156.3235  132.3962 H   0  0  0  0  0  0  0  0  0  0  0  0
  143.2939  153.7514  130.7327 H   0  0  0  0  0  0  0  0  0  0  0  0
  144.8383  153.7054  130.9230 H   0  0  0  0  0  0  0  0  0  0  0  0
  143.5734  150.9543  134.0303 H   0  0  0  0  0  0  0  0  0  0  0  0
  142.7852  150.4128  132.5097 H   0  0  0  0  0  0  0  0  0  0  0  0
  143.8265  151.8766  132.5097 H   0  0  0  0  0  0  0  0  0  0  0  0
  142.1800  152.3701  135.5627 H   0  0  0  0  0  0  0  0  0  0  0  0
  140.4559  152.2943  135.0641 H   0  0  0  0  0  0  0  0  0  0  0  0
  141.4574  150.8030  135.0641 H   0  0  0  0  0  0  0  0  0  0  0  0
  141.0255  147.8221  130.1157 H   0  0  0  0  0  0  0  0  0  0  0  0
  139.7057  148.8935  129.5354 H   0  0  0  0  0  0  0  0  0  0  0  0
  141.4037  149.4794  129.5354 H   0  0  0  0  0  0  0  0  0  0  0  0
  138.8507  149.4041  132.9296 H   0  0  0  0  0  0  0  0  0  0  0  0
  138.5060  150.3025  131.4128 H   0  0  0  0  0  0  0  0  0  0  0  0
  138.5047  148.5062  131.4128 H   0  0  0  0  0  0  0  0  0  0  0  0
  141.0123  148.7844  133.5080 H   0  0  0  0  0  0  0  0  0  0  0  0
  140.9757  147.4499  132.3062 H   0  0  0  0  0  0  0  0  0  0  0  0
  142.3373  148.6215  132.3062 H   0  0  0  0  0  0  0  0  0  0  0  0
  139.7412  156.8139  132.0870 H   0  0  0  0  0  0  0  0  0  0  0  0
  1  2  1  0
  2  3  2  0
  3  4  1  0
  4  5  2  0
  5  6  1  0
  6  7  2  0
  7  8  1  0
  8  9  1  0
  8 10  2  0
  7 11  1  0
 11 12  1  0
 12 13  2  0
 12 14  1  0
 14 15  1  0
 15 16  1  0
 16 17  1  0
 17 18  1  0
 18 19  1  0
 18 20  1  0
 18 21  1  0
 21 22  1  0
 21 23  1  0
 21 24  1  0
 15 25  1  0
 25 26  1  0
 14 27  1  0
 27 28  1  0
 27 29  1  0
 27 30  1  0
 30 31  2  0
 30 32  1  0
 32 33  1  0
 33 34  1  0
 33 35  1  0
 33 36  1  0
 11 37  1  0
 37 38  2  0
 38  2  1  0
 37  5  1  0
 26 15  1  0
  1 39  1  0
  1 40  1  0
  1 41  1  0
  3 42  1  0
  4 43  1  0
  6 44  1  0
  9 45  1  0
 16 46  1  0
 16 47  1  0
 19 48  1  0
 19 49  1  0
 19 50  1  0
 20 51  1  0
 20 52  1  0
 20 53  1  0
 22 54  1  0
 22 55  1  0
 22 56  1  0
 23 57  1  0
 23 58  1  0
 23 59  1  0
 24 60  1  0
 24 61  1  0
 24 62  1  0
 25 63  1  0
 25 64  1  0
 26 65  1  0
 26 66  1  0
 28 67  1  0
 28 68  1  0
 28 69  1  0
 29 70  1  0
 29 71  1  0
 29 72  1  0
 34 73  1  0
 34 74  1  0
 34 75  1  0
 35 76  1  0
 35 77  1  0
 35 78  1  0
 36 79  1  0
 36 80  1  0
 36 81  1  0
 38 82  1  0
M  CHG  1   9  -1
M  END
>  <UniqueID>  (56) 
55

>  <SMILES>  (56) 
Cc1ccc2cc(C([NH-])=O)n(C(=O)N(C3(CO[Si](C)(C)C(C)(C)C)CC3)C(C)(C)C(=O)OC(C)(C)C)c2c1

>  <Energy>  (56) 
371.8700269120145

>  <Genealogy>  (56) 
Cc1ccc2cc(C([NH-])=O)n(C(=O)N(C3(CO[Si](C)(C)C(C)(C)C)CC3)C(C)(C)C(=O)OC(C)(C)C)c2c1 (protonated)
Cc1ccc2cc(C([NH-])=O)n(C(=O)N(C3(CO[Si](C)(C)C(C)(C)C)CC3)C(C)(C)C(=O)OC(C)(C)C)c2c1 (3D coordinates assigned)
Cc1ccc2cc(C([NH-])=O)n(C(=O)N(C3(CO[Si](C)(C)C(C)(C)C)CC3)C(C)(C)C(=O)OC(C)(C)C)c2c1 (nonaromatic ring conformer: 371.8700269120145 kcal/mol)

>  <smiles>  (56) 
Cc1ccc2cc(C(N)=O)n(C(=O)N(C3(CO[Si](C)(C)C(C)(C)C)CC3)C(C)(C)C(=O)OC(C)(C)C)c2c1

>  <score_type>  (56) 
oracle

>  <origin>  (56) 
adg

>  <m_score__min__energy>  (56) 
-9.6199999999999992

>  <m_primary>  (56) 
energy

$$$$
56:0
     RDKit          3D

 44 45  0  0  0  0  0  0  0  0999 V2000
  141.3430  158.1290  137.7320 C   0  0  0  0  0  0  0  0  0  0  0  0
  140.8440  159.3270  136.9340 C   0  0  0  0  0  0  0  0  0  0  0  0
  141.0200  159.1070  135.5360 O   0  0  0  0  0  0  0  0  0  0  0  0
  140.2330  158.2210  134.7930 C   0  0  0  0  0  0  0  0  0  0  0  0
  138.9820  158.1800  134.9540 O   0  0  0  0  0  0  0  0  0  0  0  0
  140.8970  157.2890  133.8180 C   0  0  2  0  0  0  0  0  0  0  0  0
  142.1640  157.8740  133.3650 N   0  0  0  0  0  0  0  0  0  0  0  0
  143.3990  157.6460  134.0560 C   0  0  0  0  0  0  0  0  0  0  0  0
  143.4440  156.8510  135.0340 O   0  0  0  0  0  0  0  0  0  0  0  0
  144.5910  158.3330  133.6450 N   0  0  0  0  0  0  0  0  0  0  0  0
  144.7370  159.6590  133.3660 C   0  0  0  0  0  0  0  0  0  0  0  0
  143.7120  160.7050  133.5650 C   0  0  0  0  0  0  0  0  0  0  0  0
  142.3550  160.4880  133.1850 N   0  0  0  0  0  0  0  0  0  0  0  0
  144.0310  161.7960  134.1120 O   0  0  0  0  0  0  0  0  0  0  0  0
  146.0310  159.9220  132.9200 C   0  0  0  0  0  0  0  0  0  0  0  0
  146.6780  158.7070  132.9360 C   0  0  0  0  0  0  0  0  0  0  0  0
  147.9810  158.3800  132.5720 C   0  0  0  0  0  0  0  0  0  0  0  0
  148.3690  157.0320  132.6570 C   0  0  0  0  0  0  0  0  0  0  0  0
  147.4530  156.0420  133.0930 C   0  0  0  0  0  0  0  0  0  0  0  0
  147.8830  154.6040  133.1580 C   0  0  0  0  0  0  0  0  0  0  0  0
  149.1480  154.4720  132.6140 F   0  0  0  0  0  0  0  0  0  0  0  0
  147.9050  154.1820  134.4750 F   0  0  0  0  0  0  0  0  0  0  0  0
  146.1380  156.4120  133.4500 C   0  0  0  0  0  0  0  0  0  0  0  0
  145.7850  157.7640  133.3750 C   0  0  0  0  0  0  0  0  0  0  0  0
  139.9660  157.0050  132.6130 C   0  0  1  0  0  0  0  0  0  0  0  0
  138.8280  156.2810  133.0130 O   0  0  0  0  0  0  0  0  0  0  0  0
  139.5510  158.2750  131.9180 C   0  0  0  0  0  0  0  0  0  0  0  0
  138.3510  158.6580  131.9470 O   0  0  0  0  0  0  0  0  0  0  0  0
  140.5010  159.0490  131.2620 O   0  0  0  0  0  0  0  0  0  0  0  0
  141.2542  158.3421  138.8075 H   0  0  0  0  0  0  0  0  0  0  0  0
  140.7384  157.2446  137.4823 H   0  0  0  0  0  0  0  0  0  0  0  0
  142.3966  157.9353  137.4823 H   0  0  0  0  0  0  0  0  0  0  0  0
  139.7753  159.4815  137.1440 H   0  0  0  0  0  0  0  0  0  0  0  0
  141.4219  160.2153  137.2289 H   0  0  0  0  0  0  0  0  0  0  0  0
  141.1023  156.3320  134.3199 H   0  0  0  0  0  0  0  0  0  0  0  0
  142.1790  158.4800  132.5130 H   0  0  0  0  0  0  0  0  0  0  0  0
  142.1170  160.0970  132.2470 H   0  0  0  0  0  0  0  0  0  0  0  0
  146.4472  160.8947  132.6189 H   0  0  0  0  0  0  0  0  0  0  0  0
  148.6849  159.1524  132.2286 H   0  0  0  0  0  0  0  0  0  0  0  0
  149.3940  156.7422  132.3824 H   0  0  0  0  0  0  0  0  0  0  0  0
  147.1711  153.9888  132.5881 H   0  0  0  0  0  0  0  0  0  0  0  0
  145.4093  155.6564  133.7788 H   0  0  0  0  0  0  0  0  0  0  0  0
  140.5405  156.3966  131.8991 H   0  0  0  0  0  0  0  0  0  0  0  0
  138.1280  156.9350  133.2750 H   0  0  0  0  0  0  0  0  0  0  0  0
  1  2  1  0
  2  3  1  0
  3  4  1  0
  4  5  2  0
  4  6  1  0
  6  7  1  0
  7  8  1  0
  8  9  2  0
  8 10  1  0
 10 11  1  0
 11 12  1  0
 12 13  1  0
 12 14  2  0
 11 15  2  0
 15 16  1  0
 16 17  2  0
 17 18  1  0
 18 19  2  0
 19 20  1  0
 20 21  1  0
 20 22  1  0
 19 23  1  0
 23 24  2  0
  6 25  1  0
 25 26  1  0
 25 27  1  0
 27 28  2  0
 27 29  1  0
 24 10  1  0
 24 16  1  0
  1 30  1  0
  1 31  1  0
  1 32  1  0
  2 33  1  0
  2 34  1  0
  6 35  1  1
  7 36  1  0
 13 37  1  0
 15 38  1  0
 17 39  1  0
 18 40  1  0
 20 41  1  0
 23 42  1  0
 25 43  1  6
 26 44  1  0
M  CHG  2  13  -1  29  -1
M  END
>  <UniqueID>  (57) 
56

>  <SMILES>  (57) 
CCOC(=O)[C@H](NC(=O)n1c(C([NH-])=O)cc2ccc(C(F)F)cc21)[C@@H](O)C(=O)[O-]

>  <Energy>  (57) 
75.75143742236334

>  <Genealogy>  (57) 
CCOC(=O)C(NC(=O)n1c(C([NH-])=O)cc2ccc(C(F)F)cc21)C(O)C(=O)[O-] (protonated)
CCOC(=O)[C@H](NC(=O)n1c(C([NH-])=O)cc2ccc(C(F)F)cc21)[C@@H](O)C(=O)[O-] (chirality)
CCOC(=O)[C@H](NC(=O)n1c(C([NH-])=O)cc2ccc(C(F)F)cc21)[C@@H](O)C(=O)[O-] (3D coordinates assigned)
CCOC(=O)[C@H](NC(=O)n1c(C([NH-])=O)cc2ccc(C(F)F)cc21)[C@@H](O)C(=O)[O-] (optimized conformer: 75.75143742236334 kcal/mol)

>  <smiles>  (57) 
CCOC(=O)C(NC(=O)n1c(C(N)=O)cc2ccc(C(F)F)cc21)C(O)C(=O)O

>  <score_type>  (57) 
oracle

>  <origin>  (57) 
adg

>  <m_score__min__energy>  (57) 
-6.96

>  <m_primary>  (57) 
energy

$$$$
57:0
     RDKit          3D

 38 39  0  0  0  0  0  0  0  0999 V2000
  149.0840  157.2260  132.6150 C   0  0  0  0  0  0  0  0  0  0  0  0
  147.9940  158.2060  132.9350 C   0  0  0  0  0  0  0  0  0  0  0  0
  148.3030  159.5760  133.1150 C   0  0  0  0  0  0  0  0  0  0  0  0
  147.2840  160.5120  133.3520 C   0  0  0  0  0  0  0  0  0  0  0  0
  145.9730  160.0490  133.4130 C   0  0  0  0  0  0  0  0  0  0  0  0
  144.7980  160.7490  133.5560 C   0  0  0  0  0  0  0  0  0  0  0  0
  143.7890  159.7920  133.4900 C   0  0  0  0  0  0  0  0  0  0  0  0
  142.3510  160.1290  133.5710 C   0  0  0  0  0  0  0  0  0  0  0  0
  141.4170  159.6420  132.6080 N   0  0  0  0  0  0  0  0  0  0  0  0
  141.9340  160.8240  134.5350 O   0  0  0  0  0  0  0  0  0  0  0  0
  144.3140  158.5460  133.3190 N   0  0  0  0  0  0  0  0  0  0  0  0
  143.5930  157.3220  133.0890 C   0  0  0  0  0  0  0  0  0  0  0  0
  142.9770  157.1580  132.0000 O   0  0  0  0  0  0  0  0  0  0  0  0
  143.5810  156.2190  134.1160 C   0  0  0  0  0  0  0  0  0  0  0  0
  142.1870  155.5870  134.2750 C   0  0  2  0  0  0  0  0  0  0  0  0
  141.8090  154.9680  133.0710 O   0  0  0  0  0  0  0  0  0  0  0  0
  141.1230  156.6170  134.7080 C   0  0  0  0  0  0  0  0  0  0  0  0
  139.7500  156.8130  133.5160 P   0  0  0  0  0  0  0  0  0  0  0  0
  140.2190  157.5830  132.3020 O   0  0  0  0  0  0  0  0  0  0  0  0
  138.5000  157.6740  134.2610 O   0  0  0  0  0  0  0  0  0  0  0  0
  139.1650  155.3010  133.0330 O   0  0  0  0  0  0  0  0  0  0  0  0
  145.6560  158.7220  133.2580 C   0  0  0  0  0  0  0  0  0  0  0  0
  146.6500  157.7760  132.9790 C   0  0  0  0  0  0  0  0  0  0  0  0
  149.5149  156.8386  133.5500 H   0  0  0  0  0  0  0  0  0  0  0  0
  148.6677  156.3925  132.0302 H   0  0  0  0  0  0  0  0  0  0  0  0
  149.8686  157.7283  132.0302 H   0  0  0  0  0  0  0  0  0  0  0  0
  149.3502  159.9097  133.0688 H   0  0  0  0  0  0  0  0  0  0  0  0
  147.5148  161.5792  133.4855 H   0  0  0  0  0  0  0  0  0  0  0  0
  144.6804  161.8340  133.6933 H   0  0  0  0  0  0  0  0  0  0  0  0
  140.4170  159.9400  132.6530 H   0  0  0  0  0  0  0  0  0  0  0  0
  141.6870  158.9140  131.9140 H   0  0  0  0  0  0  0  0  0  0  0  0
  144.2905  155.4380  133.8052 H   0  0  0  0  0  0  0  0  0  0  0  0
  143.8655  156.6565  135.0843 H   0  0  0  0  0  0  0  0  0  0  0  0
  142.2490  154.8352  135.0756 H   0  0  0  0  0  0  0  0  0  0  0  0
  141.3790  155.6670  132.5110 H   0  0  0  0  0  0  0  0  0  0  0  0
  140.7014  156.2947  135.6715 H   0  0  0  0  0  0  0  0  0  0  0  0
  141.6302  157.5909  134.7725 H   0  0  0  0  0  0  0  0  0  0  0  0
  146.3898  156.7226  132.7984 H   0  0  0  0  0  0  0  0  0  0  0  0
  1  2  1  0
  2  3  2  0
  3  4  1  0
  4  5  2  0
  5  6  1  0
  6  7  2  0
  7  8  1  0
  8  9  1  0
  8 10  2  0
  7 11  1  0
 11 12  1  0
 12 13  2  0
 12 14  1  0
 14 15  1  0
 15 16  1  0
 15 17  1  0
 17 18  1  0
 18 19  2  0
 18 20  1  0
 18 21  1  0
 11 22  1  0
 22 23  2  0
 23  2  1  0
 22  5  1  0
  1 24  1  0
  1 25  1  0
  1 26  1  0
  3 27  1  0
  4 28  1  0
  6 29  1  0
  9 30  1  0
  9 31  1  0
 14 32  1  0
 14 33  1  0
 15 34  1  1
 16 35  1  0
 17 36  1  0
 17 37  1  0
 23 38  1  0
M  CHG  2  20  -1  21  -1
M  END
>  <UniqueID>  (58) 
57

>  <SMILES>  (58) 
Cc1ccc2cc(C(N)=O)n(C(=O)C[C@H](O)CP(=O)([O-])[O-])c2c1

>  <Energy>  (58) 
72.15082789735305

>  <Genealogy>  (58) 
Cc1ccc2cc(C(N)=O)n(C(=O)CC(O)CP(=O)([O-])[O-])c2c1 (protonated)
Cc1ccc2cc(C(N)=O)n(C(=O)C[C@H](O)CP(=O)([O-])[O-])c2c1 (chirality)
Cc1ccc2cc(C(N)=O)n(C(=O)C[C@H](O)CP(=O)([O-])[O-])c2c1 (3D coordinates assigned)
Cc1ccc2cc(C(N)=O)n(C(=O)C[C@H](O)CP(=O)([O-])[O-])c2c1 (optimized conformer: 72.15082789735305 kcal/mol)

>  <smiles>  (58) 
Cc1ccc2cc(C(N)=O)n(C(=O)CC(O)CP(=O)(O)O)c2c1

>  <score_type>  (58) 
oracle

>  <origin>  (58) 
adg

>  <m_score__min__energy>  (58) 
-7.25

>  <m_primary>  (58) 
energy

$$$$
58:0
     RDKit          3D

 37 38  0  0  0  0  0  0  0  0999 V2000
  148.6090  157.1410  132.6450 C   0  0  0  0  0  0  0  0  0  0  0  0
  147.5420  158.1640  132.9000 C   0  0  0  0  0  0  0  0  0  0  0  0
  147.8930  159.5250  133.0790 C   0  0  0  0  0  0  0  0  0  0  0  0
  146.9090  160.4860  133.3660 C   0  0  0  0  0  0  0  0  0  0  0  0
  145.5890  160.0560  133.4710 C   0  0  0  0  0  0  0  0  0  0  0  0
  144.4460  160.7620  133.7730 C   0  0  0  0  0  0  0  0  0  0  0  0
  143.4170  159.8220  133.7700 C   0  0  0  0  0  0  0  0  0  0  0  0
  141.9970  160.1580  134.0060 C   0  0  0  0  0  0  0  0  0  0  0  0
  141.3960  159.9590  135.2830 N   0  0  0  0  0  0  0  0  0  0  0  0
  141.2950  160.6020  133.0580 O   0  0  0  0  0  0  0  0  0  0  0  0
  143.9060  158.5840  133.4760 N   0  0  0  0  0  0  0  0  0  0  0  0
  143.1880  157.3410  133.4490 C   0  0  0  0  0  0  0  0  0  0  0  0
  143.8060  156.2680  133.2210 O   0  0  0  0  0  0  0  0  0  0  0  0
  141.7380  157.3060  133.6890 C   0  0  0  0  0  0  0  0  0  0  0  0
  141.2970  157.2530  134.8690 O   0  0  0  0  0  0  0  0  0  0  0  0
  140.8620  157.3280  132.5970 O   0  0  0  0  0  0  0  0  0  0  0  0
  139.5060  156.8790  132.6570 C   0  0  1  0  0  0  0  0  0  0  0  0
  139.5000  155.3880  132.9890 C   0  0  0  0  0  0  0  0  0  0  0  0
  138.7320  157.6650  133.7240 C   0  0  0  0  0  0  0  0  0  0  0  0
  139.2240  158.9730  133.8130 O   0  0  0  0  0  0  0  0  0  0  0  0
  145.2350  158.7430  133.3000 C   0  0  0  0  0  0  0  0  0  0  0  0
  146.1960  157.7620  133.0330 C   0  0  0  0  0  0  0  0  0  0  0  0
  148.9971  156.7689  133.6047 H   0  0  0  0  0  0  0  0  0  0  0  0
  148.1846  156.3036  132.0717 H   0  0  0  0  0  0  0  0  0  0  0  0
  149.4278  157.6003  132.0717 H   0  0  0  0  0  0  0  0  0  0  0  0
  148.9457  159.8321  132.9925 H   0  0  0  0  0  0  0  0  0  0  0  0
  147.1733  161.5449  133.5034 H   0  0  0  0  0  0  0  0  0  0  0  0
  144.3627  161.8402  133.9741 H   0  0  0  0  0  0  0  0  0  0  0  0
  140.6480  159.2420  135.4190 H   0  0  0  0  0  0  0  0  0  0  0  0
  139.0154  157.0460  131.6867 H   0  0  0  0  0  0  0  0  0  0  0  0
  139.4995  155.2555  134.0810 H   0  0  0  0  0  0  0  0  0  0  0  0
  138.6000  154.9210  132.5625 H   0  0  0  0  0  0  0  0  0  0  0  0
  140.3962  154.9138  132.5625 H   0  0  0  0  0  0  0  0  0  0  0  0
  137.6667  157.6953  133.4515 H   0  0  0  0  0  0  0  0  0  0  0  0
  138.8568  157.1676  134.6972 H   0  0  0  0  0  0  0  0  0  0  0  0
  140.2050  158.8910  133.9410 H   0  0  0  0  0  0  0  0  0  0  0  0
  145.9098  156.7049  132.9295 H   0  0  0  0  0  0  0  0  0  0  0  0
  1  2  1  0
  2  3  2  0
  3  4  1  0
  4  5  2  0
  5  6  1  0
  6  7  2  0
  7  8  1  0
  8  9  1  0
  8 10  2  0
  7 11  1  0
 11 12  1  0
 12 13  2  0
 12 14  1  0
 14 15  2  0
 14 16  1  0
 16 17  1  0
 17 18  1  0
 17 19  1  0
 19 20  1  0
 11 21  1  0
 21 22  2  0
 22  2  1  0
 21  5  1  0
  1 23  1  0
  1 24  1  0
  1 25  1  0
  3 26  1  0
  4 27  1  0
  6 28  1  0
  9 29  1  0
 17 30  1  6
 18 31  1  0
 18 32  1  0
 18 33  1  0
 19 34  1  0
 19 35  1  0
 20 36  1  0
 22 37  1  0
M  CHG  1   9  -1
M  END
>  <UniqueID>  (59) 
58

>  <SMILES>  (59) 
Cc1ccc2cc(C([NH-])=O)n(C(=O)C(=O)O[C@@H](C)CO)c2c1

>  <Energy>  (59) 
70.12285970860566

>  <Genealogy>  (59) 
Cc1ccc2cc(C([NH-])=O)n(C(=O)C(=O)OC(C)CO)c2c1 (protonated)
Cc1ccc2cc(C([NH-])=O)n(C(=O)C(=O)O[C@@H](C)CO)c2c1 (chirality)
Cc1ccc2cc(C([NH-])=O)n(C(=O)C(=O)O[C@@H](C)CO)c2c1 (3D coordinates assigned)
Cc1ccc2cc(C([NH-])=O)n(C(=O)C(=O)O[C@@H](C)CO)c2c1 (optimized conformer: 70.12285970860566 kcal/mol)

>  <smiles>  (59) 
Cc1ccc2cc(C(N)=O)n(C(=O)C(=O)OC(C)CO)c2c1

>  <score_type>  (59) 
oracle

>  <origin>  (59) 
adg

>  <m_score__min__energy>  (59) 
-5.7999999999999998

>  <m_primary>  (59) 
energy

$$$$
59:0
     RDKit          3D

 35 37  0  0  0  0  0  0  0  0999 V2000
  149.7790  157.6140  131.8630 N   0  0  0  0  0  0  0  0  0  0  0  0
  149.2670  158.9200  132.1150 C   0  0  0  0  0  0  0  0  0  0  0  0
  149.9670  159.9250  131.8200 O   0  0  0  0  0  0  0  0  0  0  0  0
  147.9080  159.1120  132.6650 C   0  0  0  0  0  0  0  0  0  0  0  0
  147.3640  160.3630  132.9470 C   0  0  0  0  0  0  0  0  0  0  0  0
  146.0700  160.1170  133.3430 C   0  0  0  0  0  0  0  0  0  0  0  0
  145.0760  161.0010  133.7460 C   0  0  0  0  0  0  0  0  0  0  0  0
  143.8330  160.4660  134.1260 C   0  0  0  0  0  0  0  0  0  0  0  0
  143.6030  159.0640  134.1050 C   0  0  0  0  0  0  0  0  0  0  0  0
  142.2890  158.5090  134.5190 C   0  0  0  0  0  0  0  0  0  0  0  0
  141.2940  159.1350  135.2490 C   0  0  0  0  0  0  0  0  0  0  0  0
  140.2620  158.2880  135.4080 N   0  0  0  0  0  0  0  0  0  0  0  0
  140.5550  157.1450  134.8100 N   0  0  0  0  0  0  0  0  0  0  0  0
  141.7790  157.2490  134.2600 C   0  0  0  0  0  0  0  0  0  0  0  0
  144.6460  158.2010  133.6880 C   0  0  0  0  0  0  0  0  0  0  0  0
  145.8670  158.7630  133.2970 C   0  0  0  0  0  0  0  0  0  0  0  0
  146.9880  158.1310  132.8870 N   0  0  0  0  0  0  0  0  0  0  0  0
  147.1730  156.7110  132.7880 C   0  0  0  0  0  0  0  0  0  0  0  0
  146.9930  156.1290  131.6830 O   0  0  0  0  0  0  0  0  0  0  0  0
  147.5750  155.9840  133.9140 O   0  0  0  0  0  0  0  0  0  0  0  0
  147.5250  154.5610  133.9900 C   0  0  0  0  0  0  0  0  0  0  0  0
  148.4590  153.9240  132.9590 C   0  0  0  0  0  0  0  0  0  0  0  0
  149.4630  154.8260  132.5810 O   0  0  0  0  0  0  0  0  0  0  0  0
  149.1380  156.8010  131.7340 H   0  0  0  0  0  0  0  0  0  0  0  0
  147.8633  161.3401  132.8695 H   0  0  0  0  0  0  0  0  0  0  0  0
  145.2565  162.0859  133.7669 H   0  0  0  0  0  0  0  0  0  0  0  0
  143.0263  161.1427  134.4444 H   0  0  0  0  0  0  0  0  0  0  0  0
  141.3401  160.1630  135.6377 H   0  0  0  0  0  0  0  0  0  0  0  0
  142.2926  156.4577  133.6942 H   0  0  0  0  0  0  0  0  0  0  0  0
  144.4994  157.1109  133.6718 H   0  0  0  0  0  0  0  0  0  0  0  0
  147.8314  154.2435  134.9976 H   0  0  0  0  0  0  0  0  0  0  0  0
  146.4958  154.2346  133.7796 H   0  0  0  0  0  0  0  0  0  0  0  0
  148.9236  153.0281  133.3966 H   0  0  0  0  0  0  0  0  0  0  0  0
  147.8727  153.6516  132.0690 H   0  0  0  0  0  0  0  0  0  0  0  0
  149.0060  155.6590  132.2940 H   0  0  0  0  0  0  0  0  0  0  0  0
  1  2  1  0
  2  3  2  0
  2  4  1  0
  4  5  2  0
  5  6  1  0
  6  7  2  0
  7  8  1  0
  8  9  2  0
  9 10  1  0
 10 11  1  0
 11 12  2  0
 12 13  1  0
 13 14  1  0
  9 15  1  0
 15 16  2  0
 16 17  1  0
 17 18  1  0
 18 19  2  0
 18 20  1  0
 20 21  1  0
 21 22  1  0
 22 23  1  0
 17  4  1  0
 16  6  1  0
 14 10  2  0
  1 24  1  0
  5 25  1  0
  7 26  1  0
  8 27  1  0
 11 28  1  0
 14 29  1  0
 15 30  1  0
 21 31  1  0
 21 32  1  0
 22 33  1  0
 22 34  1  0
 23 35  1  0
M  CHG  2   1  -1  13  -1
M  END
>  <UniqueID>  (60) 
59

>  <SMILES>  (60) 
[NH-]C(=O)c1cc2ccc(-c3cn[n-]c3)cc2n1C(=O)OCCO

>  <Energy>  (60) 
104.70808355895416

>  <Genealogy>  (60) 
[NH-]C(=O)c1cc2ccc(-c3cn[n-]c3)cc2n1C(=O)OCCO (protonated)
[NH-]C(=O)c1cc2ccc(-c3cn[n-]c3)cc2n1C(=O)OCCO (3D coordinates assigned)
[NH-]C(=O)c1cc2ccc(-c3cn[n-]c3)cc2n1C(=O)OCCO (optimized conformer: 104.70808355895416 kcal/mol)

>  <smiles>  (60) 
NC(=O)c1cc2ccc(-c3cn[nH]c3)cc2n1C(=O)OCCO

>  <score_type>  (60) 
oracle

>  <origin>  (60) 
adg

>  <m_score__min__energy>  (60) 
-6.1500000000000004

>  <m_primary>  (60) 
energy

$$$$
60:0
     RDKit          3D

 37 38  0  0  0  0  0  0  0  0999 V2000
  149.0590  157.9320  131.8760 N   0  0  0  0  0  0  0  0  0  0  0  0
  148.4680  158.5180  133.0340 C   0  0  0  0  0  0  0  0  0  0  0  0
  149.2070  159.0460  133.9060 O   0  0  0  0  0  0  0  0  0  0  0  0
  147.0090  158.4570  133.2490 C   0  0  0  0  0  0  0  0  0  0  0  0
  146.1420  159.5100  132.9580 C   0  0  0  0  0  0  0  0  0  0  0  0
  144.9090  159.0990  133.4100 C   0  0  0  0  0  0  0  0  0  0  0  0
  143.6770  159.7450  133.3720 C   0  0  0  0  0  0  0  0  0  0  0  0
  142.5630  159.0700  133.9010 C   0  0  0  0  0  0  0  0  0  0  0  0
  142.7000  157.7730  134.4600 C   0  0  0  0  0  0  0  0  0  0  0  0
  141.4960  157.0550  135.0010 C   0  0  0  0  0  0  0  0  0  0  0  0
  140.2470  158.2530  135.5580 P   0  0  0  0  0  0  0  0  0  0  0  0
  140.9280  159.3720  136.3110 O   0  0  0  0  0  0  0  0  0  0  0  0
  139.1340  157.4910  136.5790 O   0  0  0  0  0  0  0  0  0  0  0  0
  139.4360  158.8910  134.2180 O   0  0  0  0  0  0  0  0  0  0  0  0
  143.9640  157.1450  134.4700 C   0  0  0  0  0  0  0  0  0  0  0  0
  145.0540  157.8460  133.9440 C   0  0  0  0  0  0  0  0  0  0  0  0
  146.3330  157.4330  133.8390 N   0  0  0  0  0  0  0  0  0  0  0  0
  146.8180  156.1270  134.1960 C   0  0  0  0  0  0  0  0  0  0  0  0
  147.1340  155.9070  135.3970 O   0  0  0  0  0  0  0  0  0  0  0  0
  146.9430  155.0210  133.1610 C   0  0  1  0  0  0  0  0  0  0  0  0
  147.3120  155.5830  131.8580 N   0  0  0  0  0  0  0  0  0  0  0  0
  147.9590  153.9340  133.5870 C   0  0  0  0  0  0  0  0  0  0  0  0
  149.1380  153.8340  132.6630 C   0  0  0  0  0  0  0  0  0  0  0  0
  149.7080  154.8780  132.2510 O   0  0  0  0  0  0  0  0  0  0  0  0
  149.6230  152.5910  132.2740 O   0  0  0  0  0  0  0  0  0  0  0  0
  149.0990  156.8950  131.7620 H   0  0  0  0  0  0  0  0  0  0  0  0
  146.3906  160.4646  132.4713 H   0  0  0  0  0  0  0  0  0  0  0  0
  143.5779  160.7524  132.9414 H   0  0  0  0  0  0  0  0  0  0  0  0
  141.5746  159.5525  133.8814 H   0  0  0  0  0  0  0  0  0  0  0  0
  141.0653  156.4220  134.2112 H   0  0  0  0  0  0  0  0  0  0  0  0
  141.8029  156.4336  135.8552 H   0  0  0  0  0  0  0  0  0  0  0  0
  144.0884  156.1320  134.8803 H   0  0  0  0  0  0  0  0  0  0  0  0
  145.9597  154.5345  133.0806 H   0  0  0  0  0  0  0  0  0  0  0  0
  148.0650  156.2940  132.0010 H   0  0  0  0  0  0  0  0  0  0  0  0
  147.7480  154.8240  131.2860 H   0  0  0  0  0  0  0  0  0  0  0  0
  148.3248  154.1734  134.5964 H   0  0  0  0  0  0  0  0  0  0  0  0
  147.4360  152.9668  133.5565 H   0  0  0  0  0  0  0  0  0  0  0  0
  1  2  1  0
  2  3  2  0
  2  4  1  0
  4  5  2  0
  5  6  1  0
  6  7  2  0
  7  8  1  0
  8  9  2  0
  9 10  1  0
 10 11  1  0
 11 12  2  0
 11 13  1  0
 11 14  1  0
  9 15  1  0
 15 16  2  0
 16 17  1  0
 17 18  1  0
 18 19  2  0
 18 20  1  0
 20 21  1  0
 20 22  1  0
 22 23  1  0
 23 24  2  0
 23 25  1  0
 17  4  1  0
 16  6  1  0
  1 26  1  0
  5 27  1  0
  7 28  1  0
  8 29  1  0
 10 30  1  0
 10 31  1  0
 15 32  1  0
 20 33  1  6
 21 34  1  0
 21 35  1  0
 22 36  1  0
 22 37  1  0
M  CHG  4   1  -1  13  -1  14  -1  25  -1
M  END
>  <UniqueID>  (61) 
60

>  <SMILES>  (61) 
[NH-]C(=O)c1cc2ccc(CP(=O)([O-])[O-])cc2n1C(=O)[C@@H](N)CC(=O)[O-]

>  <Energy>  (61) 
70.77246129663082

>  <Genealogy>  (61) 
[NH-]C(=O)c1cc2ccc(CP(=O)([O-])[O-])cc2n1C(=O)[C@@H](N)CC(=O)[O-] (protonated)
[NH-]C(=O)c1cc2ccc(CP(=O)([O-])[O-])cc2n1C(=O)[C@@H](N)CC(=O)[O-] (3D coordinates assigned)
[NH-]C(=O)c1cc2ccc(CP(=O)([O-])[O-])cc2n1C(=O)[C@@H](N)CC(=O)[O-] (optimized conformer: 70.77246129663082 kcal/mol)

>  <smiles>  (61) 
NC(=O)c1cc2ccc(CP(=O)(O)O)cc2n1C(=O)[C@@H](N)CC(=O)O

>  <score_type>  (61) 
oracle

>  <origin>  (61) 
adg

>  <m_score__min__energy>  (61) 
-7.1200000000000001

>  <m_primary>  (61) 
energy

$$$$
61:0
     RDKit          3D

 34 35  0  0  0  0  0  0  0  0999 V2000
  138.6470  160.7460  130.9330 N   0  0  0  0  0  0  0  0  0  0  0  0
  139.0360  159.5570  131.6160 C   0  0  0  0  0  0  0  0  0  0  0  0
  138.1700  158.6890  131.9080 O   0  0  0  0  0  0  0  0  0  0  0  0
  140.4760  159.3190  131.9440 C   0  0  0  0  0  0  0  0  0  0  0  0
  140.7950  159.8200  133.3500 C   0  0  0  0  0  0  0  0  0  0  0  0
  142.1550  160.3430  133.3840 N   0  0  0  0  0  0  0  0  0  0  0  0
  143.1570  159.8390  134.2710 C   0  0  0  0  0  0  0  0  0  0  0  0
  142.8390  159.4360  135.4220 O   0  0  0  0  0  0  0  0  0  0  0  0
  144.5330  159.8200  133.8600 N   0  0  0  0  0  0  0  0  0  0  0  0
  145.4180  160.8570  133.8560 C   0  0  0  0  0  0  0  0  0  0  0  0
  145.0940  162.2770  134.1130 C   0  0  0  0  0  0  0  0  0  0  0  0
  145.9420  163.0850  134.9230 N   0  0  0  0  0  0  0  0  0  0  0  0
  144.0290  162.7670  133.6520 O   0  0  0  0  0  0  0  0  0  0  0  0
  146.6870  160.4150  133.4910 C   0  0  0  0  0  0  0  0  0  0  0  0
  146.5510  159.0660  133.2580 C   0  0  0  0  0  0  0  0  0  0  0  0
  147.5030  158.1210  132.8890 C   0  0  0  0  0  0  0  0  0  0  0  0
  147.0890  156.7860  132.7560 C   0  0  0  0  0  0  0  0  0  0  0  0
  145.7370  156.4190  132.9820 C   0  0  0  0  0  0  0  0  0  0  0  0
  145.3180  154.9730  132.8960 C   0  0  0  0  0  0  0  0  0  0  0  0
  144.6310  154.6300  134.0450 F   0  0  0  0  0  0  0  0  0  0  0  0
  146.4250  154.1510  132.7710 F   0  0  0  0  0  0  0  0  0  0  0  0
  144.4980  154.7650  131.8000 F   0  0  0  0  0  0  0  0  0  0  0  0
  144.8050  157.4060  133.3790 C   0  0  0  0  0  0  0  0  0  0  0  0
  145.2420  158.7310  133.4870 C   0  0  0  0  0  0  0  0  0  0  0  0
  138.2960  161.5760  131.4590 H   0  0  0  0  0  0  0  0  0  0  0  0
  140.6865  158.2408  131.8877 H   0  0  0  0  0  0  0  0  0  0  0  0
  141.1000  159.8659  131.2218 H   0  0  0  0  0  0  0  0  0  0  0  0
  140.0887  160.6177  133.6238 H   0  0  0  0  0  0  0  0  0  0  0  0
  140.7047  158.9883  134.0642 H   0  0  0  0  0  0  0  0  0  0  0  0
  146.9790  163.0670  134.8000 H   0  0  0  0  0  0  0  0  0  0  0  0
  147.6039  161.0169  133.4068 H   0  0  0  0  0  0  0  0  0  0  0  0
  148.5484  158.4109  132.7070 H   0  0  0  0  0  0  0  0  0  0  0  0
  147.8213  156.0155  132.4733 H   0  0  0  0  0  0  0  0  0  0  0  0
  143.7607  157.1383  133.5978 H   0  0  0  0  0  0  0  0  0  0  0  0
  1  2  1  0
  2  3  2  0
  2  4  1  0
  4  5  1  0
  5  6  1  0
  6  7  1  0
  7  8  2  0
  7  9  1  0
  9 10  1  0
 10 11  1  0
 11 12  1  0
 11 13  2  0
 10 14  2  0
 14 15  1  0
 15 16  2  0
 16 17  1  0
 17 18  2  0
 18 19  1  0
 19 20  1  0
 19 21  1  0
 19 22  1  0
 18 23  1  0
 23 24  2  0
 24  9  1  0
 24 15  1  0
  1 25  1  0
  4 26  1  0
  4 27  1  0
  5 28  1  0
  5 29  1  0
 12 30  1  0
 14 31  1  0
 16 32  1  0
 17 33  1  0
 23 34  1  0
M  CHG  3   1  -1   6  -1  12  -1
M  END
>  <UniqueID>  (62) 
61

>  <SMILES>  (62) 
[NH-]C(=O)CC[N-]C(=O)n1c(C([NH-])=O)cc2ccc(C(F)(F)F)cc21

>  <Energy>  (62) 
67.91228545942647

>  <Genealogy>  (62) 
[NH-]C(=O)CC[N-]C(=O)n1c(C([NH-])=O)cc2ccc(C(F)(F)F)cc21 (protonated)
[NH-]C(=O)CC[N-]C(=O)n1c(C([NH-])=O)cc2ccc(C(F)(F)F)cc21 (3D coordinates assigned)
[NH-]C(=O)CC[N-]C(=O)n1c(C([NH-])=O)cc2ccc(C(F)(F)F)cc21 (optimized conformer: 67.91228545942647 kcal/mol)

>  <smiles>  (62) 
NC(=O)CCNC(=O)n1c(C(N)=O)cc2ccc(C(F)(F)F)cc21

>  <score_type>  (62) 
oracle

>  <origin>  (62) 
adg

>  <m_score__min__energy>  (62) 
-6.4800000000000004

>  <m_primary>  (62) 
energy

$$$$
62:0
     RDKit          3D

 46 47  0  0  0  0  0  0  0  0999 V2000
  140.8150  159.6820  134.6190 N   0  0  0  0  0  0  0  0  0  0  0  0
  141.8830  160.3490  133.9560 C   0  0  0  0  0  0  0  0  0  0  0  0
  141.6810  161.4860  133.4520 O   0  0  0  0  0  0  0  0  0  0  0  0
  143.2030  159.7040  133.8020 C   0  0  0  0  0  0  0  0  0  0  0  0
  144.3550  160.3930  133.4260 C   0  0  0  0  0  0  0  0  0  0  0  0
  145.3310  159.4300  133.3040 C   0  0  0  0  0  0  0  0  0  0  0  0
  146.6760  159.5590  132.9710 C   0  0  0  0  0  0  0  0  0  0  0  0
  147.4650  158.3980  132.9600 C   0  0  0  0  0  0  0  0  0  0  0  0
  146.9020  157.1340  133.2730 C   0  0  0  0  0  0  0  0  0  0  0  0
  147.7850  155.9130  133.3040 C   0  0  0  0  0  0  0  0  0  0  0  0
  148.0560  155.5600  134.6160 F   0  0  0  0  0  0  0  0  0  0  0  0
  147.1360  154.8640  132.6800 F   0  0  0  0  0  0  0  0  0  0  0  0
  148.9900  156.1470  132.6620 F   0  0  0  0  0  0  0  0  0  0  0  0
  145.5340  157.0490  133.6250 C   0  0  0  0  0  0  0  0  0  0  0  0
  144.7670  158.2200  133.6070 C   0  0  0  0  0  0  0  0  0  0  0  0
  143.4620  158.3700  133.9190 N   0  0  0  0  0  0  0  0  0  0  0  0
  142.5710  157.3330  134.3590 C   0  0  0  0  0  0  0  0  0  0  0  0
  142.1490  157.3340  135.5460 O   0  0  0  0  0  0  0  0  0  0  0  0
  142.1380  156.3230  133.4360 N   0  0  0  0  0  0  0  0  0  0  0  0
  141.1610  155.2710  133.7270 C   0  0  2  0  0  0  0  0  0  0  0  0
  141.7330  153.9220  133.3760 C   0  0  0  0  0  0  0  0  0  0  0  0
  141.1360  153.1870  132.6010 O   0  0  0  0  0  0  0  0  0  0  0  0
  139.8320  155.5550  132.9920 C   0  0  0  0  0  0  0  0  0  0  0  0
  139.2590  156.9630  133.2540 C   0  0  0  0  0  0  0  0  0  0  0  0
  139.8000  158.0190  132.2850 C   0  0  0  0  0  0  0  0  0  0  0  0
  138.6960  158.5750  131.5060 N   0  0  0  0  0  0  0  0  0  0  0  0
  138.3550  159.8330  131.4770 C   0  0  0  0  0  0  0  0  0  0  0  0
  137.2470  160.2330  130.6690 N   0  0  0  0  0  0  0  0  0  0  0  0
  139.0620  160.8220  132.2390 N   0  0  0  0  0  0  0  0  0  0  0  0
  140.7210  158.6430  134.5810 H   0  0  0  0  0  0  0  0  0  0  0  0
  144.4614  161.4755  133.2618 H   0  0  0  0  0  0  0  0  0  0  0  0
  147.1075  160.5402  132.7241 H   0  0  0  0  0  0  0  0  0  0  0  0
  148.5328  158.4692  132.7056 H   0  0  0  0  0  0  0  0  0  0  0  0
  145.0839  156.0855  133.9062 H   0  0  0  0  0  0  0  0  0  0  0  0
  140.9396  155.2631  134.8045 H   0  0  0  0  0  0  0  0  0  0  0  0
  142.6874  153.5978  133.8165 H   0  0  0  0  0  0  0  0  0  0  0  0
  140.0047  155.4474  131.9110 H   0  0  0  0  0  0  0  0  0  0  0  0
  139.0951  154.8347  133.3768 H   0  0  0  0  0  0  0  0  0  0  0  0
  138.1646  156.9208  133.1513 H   0  0  0  0  0  0  0  0  0  0  0  0
  139.5650  157.2594  134.2682 H   0  0  0  0  0  0  0  0  0  0  0  0
  140.2887  158.8233  132.8544 H   0  0  0  0  0  0  0  0  0  0  0  0
  140.5307  157.5545  131.6065 H   0  0  0  0  0  0  0  0  0  0  0  0
  136.9600  161.2370  130.6180 H   0  0  0  0  0  0  0  0  0  0  0  0
  136.7200  159.5280  130.1050 H   0  0  0  0  0  0  0  0  0  0  0  0
  139.8570  160.5780  132.8700 H   0  0  0  0  0  0  0  0  0  0  0  0
  138.7780  161.8260  132.1780 H   0  0  0  0  0  0  0  0  0  0  0  0
  1  2  1  0
  2  3  2  0
  2  4  1  0
  4  5  2  0
  5  6  1  0
  6  7  2  0
  7  8  1  0
  8  9  2  0
  9 10  1  0
 10 11  1  0
 10 12  1  0
 10 13  1  0
  9 14  1  0
 14 15  2  0
 15 16  1  0
 16 17  1  0
 17 18  2  0
 17 19  1  0
 19 20  1  0
 20 21  1  0
 21 22  2  0
 20 23  1  0
 23 24  1  0
 24 25  1  0
 25 26  1  0
 26 27  2  3
 27 28  1  0
 27 29  1  0
 16  4  1  0
 15  6  1  0
  1 30  1  0
  5 31  1  0
  7 32  1  0
  8 33  1  0
 14 34  1  0
 20 35  1  1
 21 36  1  0
 23 37  1  0
 23 38  1  0
 24 39  1  0
 24 40  1  0
 25 41  1  0
 25 42  1  0
 28 43  1  0
 28 44  1  0
 29 45  1  0
 29 46  1  0
M  CHG  2   1  -1  19  -1
M  END
>  <UniqueID>  (63) 
62

>  <SMILES>  (63) 
[NH-]C(=O)c1cc2ccc(C(F)(F)F)cc2n1C(=O)[N-][C@H](C=O)CCCN=C(N)N

>  <Energy>  (63) 
77.18345494491211

>  <Genealogy>  (63) 
[NH-]C(=O)c1cc2ccc(C(F)(F)F)cc2n1C(=O)[N-]C(C=O)CCCN=C(N)N (protonated)
[NH-]C(=O)c1cc2ccc(C(F)(F)F)cc2n1C(=O)[N-][C@H](C=O)CCCN=C(N)N (chirality)
[NH-]C(=O)c1cc2ccc(C(F)(F)F)cc2n1C(=O)[N-][C@H](C=O)CCCN=C(N)N (3D coordinates assigned)
[NH-]C(=O)c1cc2ccc(C(F)(F)F)cc2n1C(=O)[N-][C@H](C=O)CCCN=C(N)N (optimized conformer: 77.18345494491211 kcal/mol)

>  <smiles>  (63) 
NC(=O)c1cc2ccc(C(F)(F)F)cc2n1C(=O)NC(C=O)CCCN=C(N)N

>  <score_type>  (63) 
oracle

>  <origin>  (63) 
adg

>  <m_score__min__energy>  (63) 
-7.5599999999999996

>  <m_primary>  (63) 
energy

$$$$
63:0
     RDKit          3D

 68 69  0  0  0  0  0  0  0  0999 V2000
  141.5870  152.3210  136.7640 C   0  0  0  0  0  0  0  0  0  0  0  0
  142.1930  153.6490  136.8950 N   0  0  0  0  0  0  0  0  0  0  0  0
  142.6510  154.3700  135.6970 C   0  0  0  0  0  0  0  0  0  0  0  0
  142.7590  155.8870  135.9540 C   0  0  0  0  0  0  0  0  0  0  0  0
  142.2490  156.6720  134.8200 N   0  0  0  0  0  0  0  0  0  0  0  0
  140.9390  157.2590  134.9280 C   0  0  0  0  0  0  0  0  0  0  0  0
  140.7810  158.3790  135.4870 O   0  0  0  0  0  0  0  0  0  0  0  0
  139.8410  156.5880  134.3820 O   0  0  0  0  0  0  0  0  0  0  0  0
  139.7730  156.2110  133.0120 C   0  0  0  0  0  0  0  0  0  0  0  0
  139.6970  157.3840  132.2140 O   0  0  0  0  0  0  0  0  0  0  0  0
  138.7980  158.4250  132.4780 C   0  0  0  0  0  0  0  0  0  0  0  0
  138.3700  158.6050  133.6530 O   0  0  0  0  0  0  0  0  0  0  0  0
  138.4100  159.3760  131.3620 C   0  0  0  0  0  0  0  0  0  0  0  0
  136.8840  159.3520  131.1270 C   0  0  0  0  0  0  0  0  0  0  0  0
  139.1200  158.9640  130.0580 C   0  0  0  0  0  0  0  0  0  0  0  0
  138.8440  160.7990  131.7550 C   0  0  0  0  0  0  0  0  0  0  0  0
  143.0710  156.8400  133.6450 C   0  0  0  0  0  0  0  0  0  0  0  0
  142.8870  156.1020  132.6390 O   0  0  0  0  0  0  0  0  0  0  0  0
  144.0600  157.8770  133.5660 N   0  0  0  0  0  0  0  0  0  0  0  0
  143.8440  159.2210  133.5220 C   0  0  0  0  0  0  0  0  0  0  0  0
  142.5310  159.8900  133.6580 C   0  0  0  0  0  0  0  0  0  0  0  0
  141.3910  159.4300  132.9340 N   0  0  0  0  0  0  0  0  0  0  0  0
  142.4090  160.8660  134.4450 O   0  0  0  0  0  0  0  0  0  0  0  0
  145.0510  159.9020  133.3670 C   0  0  0  0  0  0  0  0  0  0  0  0
  146.0180  158.9230  133.3130 C   0  0  0  0  0  0  0  0  0  0  0  0
  147.3980  159.0310  133.1770 C   0  0  0  0  0  0  0  0  0  0  0  0
  148.1540  157.8460  133.1760 C   0  0  0  0  0  0  0  0  0  0  0  0
  147.5210  156.5850  133.3130 C   0  0  0  0  0  0  0  0  0  0  0  0
  148.3380  155.3240  133.3100 C   0  0  0  0  0  0  0  0  0  0  0  0
  149.4710  155.5080  132.5400 F   0  0  0  0  0  0  0  0  0  0  0  0
  147.5920  154.2780  132.7910 F   0  0  0  0  0  0  0  0  0  0  0  0
  146.1150  156.5160  133.4320 C   0  0  0  0  0  0  0  0  0  0  0  0
  145.3920  157.7100  133.4310 C   0  0  0  0  0  0  0  0  0  0  0  0
  142.1680  154.2940  138.1830 C   0  0  0  0  0  0  0  0  0  0  0  0
  141.4090  155.2840  138.3710 O   0  0  0  0  0  0  0  0  0  0  0  0
  143.0090  153.8510  139.2110 O   0  0  0  0  0  0  0  0  0  0  0  0
  144.0640  152.9160  138.9940 C   0  0  0  0  0  0  0  0  0  0  0  0
  144.8140  153.2720  137.8550 O   0  0  0  0  0  0  0  0  0  0  0  0
  146.4760  152.9950  138.1460 P   0  0  0  0  0  0  0  0  0  0  0  0
  147.3230  153.2670  136.9210 O   0  0  0  0  0  0  0  0  0  0  0  0
  146.6860  151.3820  138.6130 O   0  0  0  0  0  0  0  0  0  0  0  0
  146.9880  154.0020  139.4050 O   0  0  0  0  0  0  0  0  0  0  0  0
  141.3969  151.9044  137.7642 H   0  0  0  0  0  0  0  0  0  0  0  0
  140.6375  152.4038  136.2148 H   0  0  0  0  0  0  0  0  0  0  0  0
  142.2717  151.6581  136.2148 H   0  0  0  0  0  0  0  0  0  0  0  0
  143.6397  153.9860  135.4055 H   0  0  0  0  0  0  0  0  0  0  0  0
  141.9149  154.2083  134.8957 H   0  0  0  0  0  0  0  0  0  0  0  0
  142.1752  156.1382  136.8518 H   0  0  0  0  0  0  0  0  0  0  0  0
  143.8219  156.1352  136.0904 H   0  0  0  0  0  0  0  0  0  0  0  0
  140.6725  155.6384  132.7417 H   0  0  0  0  0  0  0  0  0  0  0  0
  138.8836  155.5866  132.8415 H   0  0  0  0  0  0  0  0  0  0  0  0
  136.3638  159.3438  132.0962 H   0  0  0  0  0  0  0  0  0  0  0  0
  136.5864  160.2456  130.5587 H   0  0  0  0  0  0  0  0  0  0  0  0
  136.6147  158.4495  130.5587 H   0  0  0  0  0  0  0  0  0  0  0  0
  140.0481  158.4255  130.3002 H   0  0  0  0  0  0  0  0  0  0  0  0
  138.4586  158.3094  129.4714 H   0  0  0  0  0  0  0  0  0  0  0  0
  139.3602  159.8630  129.4714 H   0  0  0  0  0  0  0  0  0  0  0  0
  138.8701  160.8847  132.8513 H   0  0  0  0  0  0  0  0  0  0  0  0
  139.8451  161.0028  131.3473 H   0  0  0  0  0  0  0  0  0  0  0  0
  138.1270  161.5268  131.3473 H   0  0  0  0  0  0  0  0  0  0  0  0
  140.6100  158.9340  133.4180 H   0  0  0  0  0  0  0  0  0  0  0  0
  145.1992  160.9900  133.3017 H   0  0  0  0  0  0  0  0  0  0  0  0
  147.8826  160.0131  133.0735 H   0  0  0  0  0  0  0  0  0  0  0  0
  149.2475  157.8976  133.0678 H   0  0  0  0  0  0  0  0  0  0  0  0
  148.6295  155.0824  134.3428 H   0  0  0  0  0  0  0  0  0  0  0  0
  145.6033  155.5465  133.5231 H   0  0  0  0  0  0  0  0  0  0  0  0
  144.7247  152.9055  139.8734 H   0  0  0  0  0  0  0  0  0  0  0  0
  143.6278  151.9188  138.8347 H   0  0  0  0  0  0  0  0  0  0  0  0
  1  2  1  0
  2  3  1  0
  3  4  1  0
  4  5  1  0
  5  6  1  0
  6  7  2  0
  6  8  1  0
  8  9  1  0
  9 10  1  0
 10 11  1  0
 11 12  2  0
 11 13  1  0
 13 14  1  0
 13 15  1  0
 13 16  1  0
  5 17  1  0
 17 18  2  0
 17 19  1  0
 19 20  1  0
 20 21  1  0
 21 22  1  0
 21 23  2  0
 20 24  2  0
 24 25  1  0
 25 26  2  0
 26 27  1  0
 27 28  2  0
 28 29  1  0
 29 30  1  0
 29 31  1  0
 28 32  1  0
 32 33  2  0
  2 34  1  0
 34 35  2  0
 34 36  1  0
 36 37  1  0
 37 38  1  0
 38 39  1  0
 39 40  2  0
 39 41  1  0
 39 42  1  0
 33 19  1  0
 33 25  1  0
  1 43  1  0
  1 44  1  0
  1 45  1  0
  3 46  1  0
  3 47  1  0
  4 48  1  0
  4 49  1  0
  9 50  1  0
  9 51  1  0
 14 52  1  0
 14 53  1  0
 14 54  1  0
 15 55  1  0
 15 56  1  0
 15 57  1  0
 16 58  1  0
 16 59  1  0
 16 60  1  0
 22 61  1  0
 24 62  1  0
 26 63  1  0
 27 64  1  0
 29 65  1  0
 32 66  1  0
 37 67  1  0
 37 68  1  0
M  CHG  3  22  -1  41  -1  42  -1
M  END
>  <UniqueID>  (64) 
63

>  <SMILES>  (64) 
CN(CCN(C(=O)OCOC(=O)C(C)(C)C)C(=O)n1c(C([NH-])=O)cc2ccc(C(F)F)cc21)C(=O)OCOP(=O)([O-])[O-]

>  <Energy>  (64) 
99.10628827670111

>  <Genealogy>  (64) 
CN(CCN(C(=O)OCOC(=O)C(C)(C)C)C(=O)n1c(C([NH-])=O)cc2ccc(C(F)F)cc21)C(=O)OCOP(=O)([O-])[O-] (protonated)
CN(CCN(C(=O)OCOC(=O)C(C)(C)C)C(=O)n1c(C([NH-])=O)cc2ccc(C(F)F)cc21)C(=O)OCOP(=O)([O-])[O-] (3D coordinates assigned)
CN(CCN(C(=O)OCOC(=O)C(C)(C)C)C(=O)n1c(C([NH-])=O)cc2ccc(C(F)F)cc21)C(=O)OCOP(=O)([O-])[O-] (optimized conformer: 99.10628827670111 kcal/mol)

>  <smiles>  (64) 
CN(CCN(C(=O)OCOC(=O)C(C)(C)C)C(=O)n1c(C(N)=O)cc2ccc(C(F)F)cc21)C(=O)OCOP(=O)(O)O

>  <score_type>  (64) 
oracle

>  <origin>  (64) 
adg

>  <m_score__min__energy>  (64) 
-8.6999999999999993

>  <m_primary>  (64) 
energy

$$$$
64:0
     RDKit          3D

 34 35  0  0  0  0  0  0  0  0999 V2000
  142.6980  160.9490  133.6370 N   0  0  0  0  0  0  0  0  0  0  0  0
  144.0910  161.2380  133.7210 C   0  0  0  0  0  0  0  0  0  0  0  0
  144.4600  162.4160  133.9700 O   0  0  0  0  0  0  0  0  0  0  0  0
  145.1060  160.1750  133.5530 C   0  0  0  0  0  0  0  0  0  0  0  0
  146.4690  160.4310  133.4110 C   0  0  0  0  0  0  0  0  0  0  0  0
  147.0650  159.1950  133.3090 C   0  0  0  0  0  0  0  0  0  0  0  0
  148.4030  158.8610  133.1280 C   0  0  0  0  0  0  0  0  0  0  0  0
  148.7310  157.5000  133.0050 C   0  0  0  0  0  0  0  0  0  0  0  0
  147.7200  156.5050  133.0280 C   0  0  0  0  0  0  0  0  0  0  0  0
  148.0850  155.0460  132.9210 C   0  0  0  0  0  0  0  0  0  0  0  0
  148.2240  154.4850  134.1790 F   0  0  0  0  0  0  0  0  0  0  0  0
  149.2800  154.9260  132.2380 F   0  0  0  0  0  0  0  0  0  0  0  0
  147.1040  154.3440  132.2420 F   0  0  0  0  0  0  0  0  0  0  0  0
  146.3730  156.8860  133.2330 C   0  0  0  0  0  0  0  0  0  0  0  0
  146.0800  158.2470  133.3860 C   0  0  0  0  0  0  0  0  0  0  0  0
  144.8730  158.8310  133.5530 N   0  0  0  0  0  0  0  0  0  0  0  0
  143.6030  158.1620  133.6140 C   0  0  0  0  0  0  0  0  0  0  0  0
  142.8150  158.2330  132.6330 O   0  0  0  0  0  0  0  0  0  0  0  0
  143.1870  157.3890  134.8370 C   0  0  0  0  0  0  0  0  0  0  0  0
  141.6830  157.0870  134.8400 C   0  0  0  0  0  0  0  0  0  0  0  0
  140.6800  158.6030  134.9880 P   0  0  2  0  0  0  0  0  0  0  0  0
  141.4260  159.6230  135.8190 O   0  0  0  0  0  0  0  0  0  0  0  0
  139.2190  158.2240  135.7520 O   0  0  0  0  0  0  0  0  0  0  0  0
  140.3570  159.2530  133.4610 O   0  0  0  0  0  0  0  0  0  0  0  0
  142.3320  159.9960  133.8520 H   0  0  0  0  0  0  0  0  0  0  0  0
  146.9634  161.4133  133.3858 H   0  0  0  0  0  0  0  0  0  0  0  0
  149.1803  159.6380  133.0825 H   0  0  0  0  0  0  0  0  0  0  0  0
  149.7838  157.2028  132.8896 H   0  0  0  0  0  0  0  0  0  0  0  0
  145.5742  156.1307  133.2713 H   0  0  0  0  0  0  0  0  0  0  0  0
  143.7404  156.4387  134.8621 H   0  0  0  0  0  0  0  0  0  0  0  0
  143.4126  158.0034  135.7211 H   0  0  0  0  0  0  0  0  0  0  0  0
  141.4213  156.5787  133.9002 H   0  0  0  0  0  0  0  0  0  0  0  0
  141.4666  156.4510  135.7110 H   0  0  0  0  0  0  0  0  0  0  0  0
  141.2270  159.6000  133.1420 H   0  0  0  0  0  0  0  0  0  0  0  0
  1  2  1  0
  2  3  2  0
  2  4  1  0
  4  5  2  0
  5  6  1  0
  6  7  2  0
  7  8  1  0
  8  9  2  0
  9 10  1  0
 10 11  1  0
 10 12  1  0
 10 13  1  0
  9 14  1  0
 14 15  2  0
 15 16  1  0
 16 17  1  0
 17 18  2  0
 17 19  1  0
 19 20  1  0
 20 21  1  0
 21 22  2  0
 21 23  1  1
 21 24  1  0
 16  4  1  0
 15  6  1  0
  1 25  1  0
  5 26  1  0
  7 27  1  0
  8 28  1  0
 14 29  1  0
 19 30  1  0
 19 31  1  0
 20 32  1  0
 20 33  1  0
 24 34  1  0
M  CHG  2   1  -1  23  -1
M  END
>  <UniqueID>  (65) 
64

>  <SMILES>  (65) 
[NH-]C(=O)c1cc2ccc(C(F)(F)F)cc2n1C(=O)CC[P@](=O)([O-])O

>  <Energy>  (65) 
67.69322567651484

>  <Genealogy>  (65) 
[NH-]C(=O)c1cc2ccc(C(F)(F)F)cc2n1C(=O)CCP(=O)([O-])O (protonated)
[NH-]C(=O)c1cc2ccc(C(F)(F)F)cc2n1C(=O)CC[P@](=O)([O-])O (chirality)
[NH-]C(=O)c1cc2ccc(C(F)(F)F)cc2n1C(=O)CC[P@](=O)([O-])O (3D coordinates assigned)
[NH-]C(=O)c1cc2ccc(C(F)(F)F)cc2n1C(=O)CC[P@](=O)([O-])O (optimized conformer: 67.69322567651484 kcal/mol)

>  <smiles>  (65) 
NC(=O)c1cc2ccc(C(F)(F)F)cc2n1C(=O)CCP(=O)(O)O

>  <score_type>  (65) 
oracle

>  <origin>  (65) 
adg

>  <m_score__min__energy>  (65) 
-5.5599999999999996

>  <m_primary>  (65) 
energy

$$$$
65:0
     RDKit          3D

 40 41  0  0  0  0  0  0  0  0999 V2000
  140.7140  158.3530  137.4160 C   0  0  0  0  0  0  0  0  0  0  0  0
  140.8120  158.4270  135.9530 N   0  0  0  0  0  0  0  0  0  0  0  0
  141.0090  159.7380  135.3210 C   0  0  0  0  0  0  0  0  0  0  0  0
  140.7140  157.2240  135.1450 C   0  0  0  0  0  0  0  0  0  0  0  0
  139.8560  157.1770  134.0090 C   0  0  0  0  0  0  0  0  0  0  0  0
  139.7630  156.0220  133.2160 C   0  0  0  0  0  0  0  0  0  0  0  0
  140.5280  154.9190  133.5760 C   0  0  0  0  0  0  0  0  0  0  0  0
  140.6460  153.6890  132.9720 C   0  0  0  0  0  0  0  0  0  0  0  0
  141.5560  152.9800  133.7540 C   0  0  0  0  0  0  0  0  0  0  0  0
  141.9200  151.5680  133.5050 C   0  0  0  0  0  0  0  0  0  0  0  0
  140.8960  150.5820  133.3920 N   0  0  0  0  0  0  0  0  0  0  0  0
  143.1250  151.2170  133.4230 O   0  0  0  0  0  0  0  0  0  0  0  0
  141.9870  153.7450  134.7960 N   0  0  0  0  0  0  0  0  0  0  0  0
  142.9580  153.4060  135.7980 C   0  0  0  0  0  0  0  0  0  0  0  0
  144.1510  153.7970  135.6780 O   0  0  0  0  0  0  0  0  0  0  0  0
  142.5650  152.6390  136.9420 N   0  0  0  0  0  0  0  0  0  0  0  0
  141.2260  152.6740  137.5200 C   0  0  2  0  0  0  0  0  0  0  0  0
  141.3110  153.2390  138.9450 C   0  0  0  0  0  0  0  0  0  0  0  0
  140.3290  154.3510  139.1580 C   0  0  0  0  0  0  0  0  0  0  0  0
  140.2440  155.2910  138.3250 O   0  0  0  0  0  0  0  0  0  0  0  0
  139.4790  154.3260  140.2570 O   0  0  0  0  0  0  0  0  0  0  0  0
  140.6430  151.2870  137.5270 C   0  0  0  0  0  0  0  0  0  0  0  0
  140.2050  150.7900  138.5980 O   0  0  0  0  0  0  0  0  0  0  0  0
  140.6070  150.5380  136.3570 O   0  0  0  0  0  0  0  0  0  0  0  0
  141.3460  154.9290  134.6730 C   0  0  0  0  0  0  0  0  0  0  0  0
  141.4760  156.0720  135.4690 C   0  0  0  0  0  0  0  0  0  0  0  0
  141.5142  158.9573  137.8681 H   0  0  0  0  0  0  0  0  0  0  0  0
  139.7359  158.7398  137.7380 H   0  0  0  0  0  0  0  0  0  0  0  0
  140.8185  157.3064  137.7380 H   0  0  0  0  0  0  0  0  0  0  0  0
  141.1245  160.5066  136.0994 H   0  0  0  0  0  0  0  0  0  0  0  0
  141.9132  159.7112  134.6951 H   0  0  0  0  0  0  0  0  0  0  0  0
  140.1369  159.9781  134.6951 H   0  0  0  0  0  0  0  0  0  0  0  0
  139.2557  158.0611  133.7484 H   0  0  0  0  0  0  0  0  0  0  0  0
  139.1041  155.9911  132.3358 H   0  0  0  0  0  0  0  0  0  0  0  0
  140.1316  153.3393  132.0648 H   0  0  0  0  0  0  0  0  0  0  0  0
  140.2370  150.4000  134.1810 H   0  0  0  0  0  0  0  0  0  0  0  0
  140.5701  153.3211  136.9191 H   0  0  0  0  0  0  0  0  0  0  0  0
  141.0978  152.4324  139.6619 H   0  0  0  0  0  0  0  0  0  0  0  0
  142.3237  153.6413  139.0954 H   0  0  0  0  0  0  0  0  0  0  0  0
  142.1580  156.0775  136.3321 H   0  0  0  0  0  0  0  0  0  0  0  0
  1  2  1  0
  2  3  1  0
  2  4  1  0
  4  5  2  0
  5  6  1  0
  6  7  2  0
  7  8  1  0
  8  9  2  0
  9 10  1  0
 10 11  1  0
 10 12  2  0
  9 13  1  0
 13 14  1  0
 14 15  2  0
 14 16  1  0
 16 17  1  0
 17 18  1  0
 18 19  1  0
 19 20  2  0
 19 21  1  0
 17 22  1  0
 22 23  2  0
 22 24  1  0
 13 25  1  0
 25 26  2  0
 26  4  1  0
 25  7  1  0
  1 27  1  0
  1 28  1  0
  1 29  1  0
  3 30  1  0
  3 31  1  0
  3 32  1  0
  5 33  1  0
  6 34  1  0
  8 35  1  0
 11 36  1  0
 17 37  1  6
 18 38  1  0
 18 39  1  0
 26 40  1  0
M  CHG  4  11  -1  16  -1  21  -1  24  -1
M  END
>  <UniqueID>  (66) 
65

>  <SMILES>  (66) 
CN(C)c1ccc2cc(C([NH-])=O)n(C(=O)[N-][C@H](CC(=O)[O-])C(=O)[O-])c2c1

>  <Energy>  (66) 
75.23986085240665

>  <Genealogy>  (66) 
CN(C)c1ccc2cc(C([NH-])=O)n(C(=O)[N-]C(CC(=O)[O-])C(=O)[O-])c2c1 (protonated)
CN(C)c1ccc2cc(C([NH-])=O)n(C(=O)[N-][C@H](CC(=O)[O-])C(=O)[O-])c2c1 (chirality)
CN(C)c1ccc2cc(C([NH-])=O)n(C(=O)[N-][C@H](CC(=O)[O-])C(=O)[O-])c2c1 (3D coordinates assigned)
CN(C)c1ccc2cc(C([NH-])=O)n(C(=O)[N-][C@H](CC(=O)[O-])C(=O)[O-])c2c1 (optimized conformer: 75.23986085240665 kcal/mol)

>  <smiles>  (66) 
CN(C)c1ccc2cc(C(N)=O)n(C(=O)NC(CC(=O)O)C(=O)O)c2c1

>  <score_type>  (66) 
oracle

>  <origin>  (66) 
adg

>  <m_score__min__energy>  (66) 
-7.1399999999999997

>  <m_primary>  (66) 
energy

$$$$
66:0
     RDKit          3D

 35 36  0  0  0  0  0  0  0  0999 V2000
  142.1700  156.6550  134.1160 C   0  0  0  0  0  0  0  0  0  0  0  0
  142.3290  158.0680  134.4630 N   0  0  0  0  0  0  0  0  0  0  0  0
  143.5510  158.7170  134.0750 C   0  0  0  0  0  0  0  0  0  0  0  0
  143.6230  160.1310  134.0570 C   0  0  0  0  0  0  0  0  0  0  0  0
  144.8130  160.7810  133.6860 C   0  0  0  0  0  0  0  0  0  0  0  0
  145.9000  159.9900  133.3210 C   0  0  0  0  0  0  0  0  0  0  0  0
  147.1770  160.3540  132.9610 C   0  0  0  0  0  0  0  0  0  0  0  0
  147.8530  159.1570  132.7350 C   0  0  0  0  0  0  0  0  0  0  0  0
  149.2500  159.0860  132.2600 C   0  0  0  0  0  0  0  0  0  0  0  0
  149.8200  157.8270  131.9110 N   0  0  0  0  0  0  0  0  0  0  0  0
  149.9590  160.1260  132.1870 O   0  0  0  0  0  0  0  0  0  0  0  0
  147.0290  158.0930  132.9510 N   0  0  0  0  0  0  0  0  0  0  0  0
  147.3670  156.6970  132.9250 C   0  0  0  0  0  0  0  0  0  0  0  0
  147.3000  156.0460  131.8490 O   0  0  0  0  0  0  0  0  0  0  0  0
  147.7960  156.0560  134.0810 O   0  0  0  0  0  0  0  0  0  0  0  0
  145.8360  158.6200  133.3070 C   0  0  0  0  0  0  0  0  0  0  0  0
  144.6680  157.9470  133.6860 C   0  0  0  0  0  0  0  0  0  0  0  0
  141.2340  158.8140  135.1120 C   0  0  1  0  0  0  0  0  0  0  0  0
  140.0050  158.8540  134.2450 C   0  0  0  0  0  0  0  0  0  0  0  0
  139.8780  159.7170  133.3350 O   0  0  0  0  0  0  0  0  0  0  0  0
  138.9650  157.9660  134.4890 O   0  0  0  0  0  0  0  0  0  0  0  0
  140.8740  158.1220  136.7670 P   0  0  1  0  0  0  0  0  0  0  0  0
  141.3290  156.6810  136.8210 O   0  0  0  0  0  0  0  0  0  0  0  0
  141.6790  159.0040  137.9690 O   0  0  0  0  0  0  0  0  0  0  0  0
  139.2050  158.1920  137.0510 O   0  0  0  0  0  0  0  0  0  0  0  0
  142.1027  156.0567  135.0366 H   0  0  0  0  0  0  0  0  0  0  0  0
  141.2514  156.5236  133.5253 H   0  0  0  0  0  0  0  0  0  0  0  0
  143.0364  156.3228  133.5253 H   0  0  0  0  0  0  0  0  0  0  0  0
  142.7406  160.7257  134.3356 H   0  0  0  0  0  0  0  0  0  0  0  0
  144.8835  161.8787  133.6840 H   0  0  0  0  0  0  0  0  0  0  0  0
  147.5790  161.3739  132.8707 H   0  0  0  0  0  0  0  0  0  0  0  0
  149.2220  157.0350  131.5870 H   0  0  0  0  0  0  0  0  0  0  0  0
  144.6223  156.8480  133.6807 H   0  0  0  0  0  0  0  0  0  0  0  0
  141.5635  159.8547  135.2475 H   0  0  0  0  0  0  0  0  0  0  0  0
  138.8480  158.7690  136.3270 H   0  0  0  0  0  0  0  0  0  0  0  0
  1  2  1  0
  2  3  1  0
  3  4  2  0
  4  5  1  0
  5  6  2  0
  6  7  1  0
  7  8  2  0
  8  9  1  0
  9 10  1  0
  9 11  2  0
  8 12  1  0
 12 13  1  0
 13 14  2  0
 13 15  1  0
 12 16  1  0
 16 17  2  0
  2 18  1  0
 18 19  1  0
 19 20  2  0
 19 21  1  0
 18 22  1  0
 22 23  2  0
 22 24  1  1
 22 25  1  0
 17  3  1  0
 16  6  1  0
  1 26  1  0
  1 27  1  0
  1 28  1  0
  4 29  1  0
  5 30  1  0
  7 31  1  0
 10 32  1  0
 17 33  1  0
 18 34  1  1
 25 35  1  0
M  CHG  4  10  -1  15  -1  21  -1  24  -1
M  END
>  <UniqueID>  (67) 
66

>  <SMILES>  (67) 
CN(c1ccc2cc(C([NH-])=O)n(C(=O)[O-])c2c1)[C@@H](C(=O)[O-])[P@@](=O)([O-])O

>  <Energy>  (67) 
75.19658416765911

>  <Genealogy>  (67) 
CN(c1ccc2cc(C([NH-])=O)n(C(=O)[O-])c2c1)C(C(=O)[O-])P(=O)([O-])O (protonated)
CN(c1ccc2cc(C([NH-])=O)n(C(=O)[O-])c2c1)[C@@H](C(=O)[O-])[P@@](=O)([O-])O (chirality)
CN(c1ccc2cc(C([NH-])=O)n(C(=O)[O-])c2c1)[C@@H](C(=O)[O-])[P@@](=O)([O-])O (3D coordinates assigned)
CN(c1ccc2cc(C([NH-])=O)n(C(=O)[O-])c2c1)[C@@H](C(=O)[O-])[P@@](=O)([O-])O (optimized conformer: 75.19658416765911 kcal/mol)

>  <smiles>  (67) 
CN(c1ccc2cc(C(N)=O)n(C(=O)O)c2c1)C(C(=O)O)P(=O)(O)O

>  <score_type>  (67) 
oracle

>  <origin>  (67) 
adg

>  <m_score__min__energy>  (67) 
-6.3899999999999997

>  <m_primary>  (67) 
energy

$$$$
67:0
     RDKit          3D

 28 29  0  0  0  0  0  0  0  0999 V2000
  149.2810  161.7880  130.3660 C   0  0  0  0  0  0  0  0  0  0  0  0
  149.0790  160.4800  131.0700 C   0  0  0  0  0  0  0  0  0  0  0  0
  150.1340  159.5380  131.1350 C   0  0  0  0  0  0  0  0  0  0  0  0
  149.9640  158.3180  131.8120 C   0  0  0  0  0  0  0  0  0  0  0  0
  148.7400  158.0820  132.4310 C   0  0  0  0  0  0  0  0  0  0  0  0
  148.3010  156.9810  133.1310 C   0  0  0  0  0  0  0  0  0  0  0  0
  146.9970  157.2860  133.5200 C   0  0  0  0  0  0  0  0  0  0  0  0
  146.1690  156.3950  134.3600 C   0  0  0  0  0  0  0  0  0  0  0  0
  144.7670  156.2690  134.1390 N   0  0  0  0  0  0  0  0  0  0  0  0
  146.7010  155.7660  135.3140 O   0  0  0  0  0  0  0  0  0  0  0  0
  146.6430  158.5240  133.0730 N   0  0  0  0  0  0  0  0  0  0  0  0
  145.3650  159.1680  133.2010 C   0  0  0  0  0  0  0  0  0  0  0  0
  144.3120  158.5520  132.8910 O   0  0  0  0  0  0  0  0  0  0  0  0
  145.2720  160.5210  133.6830 C   0  0  0  0  0  0  0  0  0  0  0  0
  145.2000  161.6540  134.0860 C   0  0  0  0  0  0  0  0  0  0  0  0
  145.1110  163.0050  134.5630 C   0  0  0  0  0  0  0  0  0  0  0  0
  145.8450  163.3880  135.5090 O   0  0  0  0  0  0  0  0  0  0  0  0
  144.2140  163.8880  133.9780 O   0  0  0  0  0  0  0  0  0  0  0  0
  147.7200  158.9970  132.4070 C   0  0  0  0  0  0  0  0  0  0  0  0
  147.8550  160.2110  131.7210 C   0  0  0  0  0  0  0  0  0  0  0  0
  149.4048  162.5893  131.1094 H   0  0  0  0  0  0  0  0  0  0  0  0
  150.1809  161.7302  129.7360 H   0  0  0  0  0  0  0  0  0  0  0  0
  148.4056  162.0043  129.7360 H   0  0  0  0  0  0  0  0  0  0  0  0
  151.0959  159.7631  130.6511 H   0  0  0  0  0  0  0  0  0  0  0  0
  150.7727  157.5734  131.8513 H   0  0  0  0  0  0  0  0  0  0  0  0
  148.8601  156.0568  133.3393 H   0  0  0  0  0  0  0  0  0  0  0  0
  144.3570  156.4230  133.1910 H   0  0  0  0  0  0  0  0  0  0  0  0
  147.0286  160.9363  131.6902 H   0  0  0  0  0  0  0  0  0  0  0  0
  1  2  1  0
  2  3  2  0
  3  4  1  0
  4  5  2  0
  5  6  1  0
  6  7  2  0
  7  8  1  0
  8  9  1  0
  8 10  2  0
  7 11  1  0
 11 12  1  0
 12 13  2  0
 12 14  1  0
 14 15  3  0
 15 16  1  0
 16 17  2  0
 16 18  1  0
 11 19  1  0
 19 20  2  0
 20  2  1  0
 19  5  1  0
  1 21  1  0
  1 22  1  0
  1 23  1  0
  3 24  1  0
  4 25  1  0
  6 26  1  0
  9 27  1  0
 20 28  1  0
M  CHG  2   9  -1  18  -1
M  END
>  <UniqueID>  (68) 
67

>  <SMILES>  (68) 
Cc1ccc2cc(C([NH-])=O)n(C(=O)C#CC(=O)[O-])c2c1

>  <Energy>  (68) 
63.31053862747381

>  <Genealogy>  (68) 
Cc1ccc2cc(C([NH-])=O)n(C(=O)C#CC(=O)[O-])c2c1 (protonated)
Cc1ccc2cc(C([NH-])=O)n(C(=O)C#CC(=O)[O-])c2c1 (3D coordinates assigned)
Cc1ccc2cc(C([NH-])=O)n(C(=O)C#CC(=O)[O-])c2c1 (optimized conformer: 63.31053862747381 kcal/mol)

>  <smiles>  (68) 
Cc1ccc2cc(C(N)=O)n(C(=O)C#CC(=O)O)c2c1

>  <score_type>  (68) 
oracle

>  <origin>  (68) 
adg

>  <m_score__min__energy>  (68) 
-7.3200000000000003

>  <m_primary>  (68) 
energy

$$$$
68:0
     RDKit          3D

 57 58  0  0  0  0  0  0  0  0999 V2000
  150.2120  150.3640  131.3860 C   0  0  0  0  0  0  0  0  0  0  0  0
  150.0620  151.2400  132.5930 C   0  0  0  0  0  0  0  0  0  0  0  0
  150.0650  150.7240  133.7050 O   0  0  0  0  0  0  0  0  0  0  0  0
  149.9430  152.7370  132.4660 C   0  0  0  0  0  0  0  0  0  0  0  0
  148.5030  153.1660  132.5640 C   0  0  0  0  0  0  0  0  0  0  0  0
  147.4730  152.1940  132.6040 C   0  0  0  0  0  0  0  0  0  0  0  0
  146.1280  152.5800  132.7510 C   0  0  0  0  0  0  0  0  0  0  0  0
  145.8490  153.9400  132.8570 C   0  0  0  0  0  0  0  0  0  0  0  0
  144.6470  154.5910  133.0390 C   0  0  0  0  0  0  0  0  0  0  0  0
  144.9670  155.9480  133.0970 C   0  0  0  0  0  0  0  0  0  0  0  0
  143.9670  157.0290  133.2270 C   0  0  0  0  0  0  0  0  0  0  0  0
  143.7780  157.6760  134.4830 N   0  0  0  0  0  0  0  0  0  0  0  0
  143.2600  157.3720  132.2440 O   0  0  0  0  0  0  0  0  0  0  0  0
  146.3120  156.1250  132.9590 N   0  0  0  0  0  0  0  0  0  0  0  0
  147.0530  157.3530  133.0060 C   0  0  0  0  0  0  0  0  0  0  0  0
  148.1320  157.4540  132.3630 O   0  0  0  0  0  0  0  0  0  0  0  0
  146.6110  158.4770  133.8900 C   0  0  0  0  0  0  0  0  0  0  0  0
  145.6700  159.2600  133.1860 O   0  0  0  0  0  0  0  0  0  0  0  0
  145.7030  160.5850  133.6650 C   0  0  0  0  0  0  0  0  0  0  0  0
  144.3000  161.0970  133.7410 C   0  0  0  0  0  0  0  0  0  0  0  0
  144.0950  162.3320  133.8760 O   0  0  0  0  0  0  0  0  0  0  0  0
  143.1980  160.1940  133.5930 N   0  0  0  0  0  0  0  0  0  0  0  0
  141.8170  160.6810  133.5360 C   0  0  0  0  0  0  0  0  0  0  0  0
  140.8070  159.5250  133.4500 C   0  0  0  0  0  0  0  0  0  0  0  0
  140.5480  159.0670  132.0040 C   0  0  0  0  0  0  0  0  0  0  0  0
  139.2060  158.4610  131.8630 N   0  0  0  0  0  0  0  0  0  0  0  0
  138.2310  159.4440  131.3610 C   0  0  0  0  0  0  0  0  0  0  0  0
  138.7440  157.9180  133.1500 C   0  0  0  0  0  0  0  0  0  0  0  0
  146.8350  154.8910  132.8120 C   0  0  0  0  0  0  0  0  0  0  0  0
  148.1800  154.5370  132.6770 C   0  0  0  0  0  0  0  0  0  0  0  0
  150.3897  149.3266  131.7057 H   0  0  0  0  0  0  0  0  0  0  0  0
  149.2930  150.4097  130.7833 H   0  0  0  0  0  0  0  0  0  0  0  0
  151.0635  150.7129  130.7833 H   0  0  0  0  0  0  0  0  0  0  0  0
  150.5179  153.2148  133.2729 H   0  0  0  0  0  0  0  0  0  0  0  0
  150.3370  153.0414  131.4852 H   0  0  0  0  0  0  0  0  0  0  0  0
  147.7273  151.1272  132.5193 H   0  0  0  0  0  0  0  0  0  0  0  0
  145.3227  151.8313  132.7812 H   0  0  0  0  0  0  0  0  0  0  0  0
  143.6484  154.1371  133.1210 H   0  0  0  0  0  0  0  0  0  0  0  0
  144.2930  158.5510  134.7200 H   0  0  0  0  0  0  0  0  0  0  0  0
  146.1478  158.0715  134.8016 H   0  0  0  0  0  0  0  0  0  0  0  0
  147.4760  159.0942  134.1744 H   0  0  0  0  0  0  0  0  0  0  0  0
  146.1607  160.6068  134.6650 H   0  0  0  0  0  0  0  0  0  0  0  0
  146.2983  161.2157  132.9884 H   0  0  0  0  0  0  0  0  0  0  0  0
  143.4010  159.1780  133.4660 H   0  0  0  0  0  0  0  0  0  0  0  0
  141.6091  161.2688  134.4422 H   0  0  0  0  0  0  0  0  0  0  0  0
  141.7089  161.2975  132.6314 H   0  0  0  0  0  0  0  0  0  0  0  0
  141.1988  158.6724  134.0241 H   0  0  0  0  0  0  0  0  0  0  0  0
  139.8524  159.8876  133.8590 H   0  0  0  0  0  0  0  0  0  0  0  0
  140.6203  159.9368  131.3345 H   0  0  0  0  0  0  0  0  0  0  0  0
  141.3001  158.3088  131.7406 H   0  0  0  0  0  0  0  0  0  0  0  0
  137.7393  159.9397  132.2110 H   0  0  0  0  0  0  0  0  0  0  0  0
  138.7504  160.1957  130.7485 H   0  0  0  0  0  0  0  0  0  0  0  0
  137.4751  158.9308  130.7485 H   0  0  0  0  0  0  0  0  0  0  0  0
  139.2167  158.4736  133.9733 H   0  0  0  0  0  0  0  0  0  0  0  0
  137.6509  158.0192  133.2195 H   0  0  0  0  0  0  0  0  0  0  0  0
  139.0190  156.8552  133.2195 H   0  0  0  0  0  0  0  0  0  0  0  0
  148.9668  155.3055  132.6592 H   0  0  0  0  0  0  0  0  0  0  0  0
  1  2  1  0
  2  3  2  0
  2  4  1  0
  4  5  1  0
  5  6  2  0
  6  7  1  0
  7  8  2  0
  8  9  1  0
  9 10  2  0
 10 11  1  0
 11 12  1  0
 11 13  2  0
 10 14  1  0
 14 15  1  0
 15 16  2  0
 15 17  1  0
 17 18  1  0
 18 19  1  0
 19 20  1  0
 20 21  2  0
 20 22  1  0
 22 23  1  0
 23 24  1  0
 24 25  1  0
 25 26  1  0
 26 27  1  0
 26 28  1  0
 14 29  1  0
 29 30  2  0
 30  5  1  0
 29  8  1  0
  1 31  1  0
  1 32  1  0
  1 33  1  0
  4 34  1  0
  4 35  1  0
  6 36  1  0
  7 37  1  0
  9 38  1  0
 12 39  1  0
 17 40  1  0
 17 41  1  0
 19 42  1  0
 19 43  1  0
 22 44  1  0
 23 45  1  0
 23 46  1  0
 24 47  1  0
 24 48  1  0
 25 49  1  0
 25 50  1  0
 27 51  1  0
 27 52  1  0
 27 53  1  0
 28 54  1  0
 28 55  1  0
 28 56  1  0
 30 57  1  0
M  CHG  1  12  -1
M  END
>  <UniqueID>  (69) 
68

>  <SMILES>  (69) 
CC(=O)Cc1ccc2cc(C([NH-])=O)n(C(=O)COCC(=O)NCCCN(C)C)c2c1

>  <Energy>  (69) 
86.47404427403285

>  <Genealogy>  (69) 
CC(=O)Cc1ccc2cc(C([NH-])=O)n(C(=O)COCC(=O)NCCCN(C)C)c2c1 (protonated)
CC(=O)Cc1ccc2cc(C([NH-])=O)n(C(=O)COCC(=O)NCCCN(C)C)c2c1 (3D coordinates assigned)
CC(=O)Cc1ccc2cc(C([NH-])=O)n(C(=O)COCC(=O)NCCCN(C)C)c2c1 (optimized conformer: 86.47404427403285 kcal/mol)

>  <smiles>  (69) 
CC(=O)Cc1ccc2cc(C(N)=O)n(C(=O)COCC(=O)NCCCN(C)C)c2c1

>  <score_type>  (69) 
oracle

>  <origin>  (69) 
adg

>  <m_score__min__energy>  (69) 
-8.0199999999999996

>  <m_primary>  (69) 
energy

$$$$
69:0
     RDKit          3D

 39 40  0  0  0  0  0  0  0  0999 V2000
  149.6350  150.4580  134.8700 C   0  0  0  0  0  0  0  0  0  0  0  0
  149.6540  151.4440  133.7830 N   0  0  0  0  0  0  0  0  0  0  0  0
  150.5090  151.2120  132.6110 C   0  0  0  0  0  0  0  0  0  0  0  0
  149.7320  150.5100  131.5430 C   0  0  0  0  0  0  0  0  0  0  0  0
  148.4770  150.4400  131.6120 O   0  0  0  0  0  0  0  0  0  0  0  0
  150.3930  149.9660  130.4490 O   0  0  0  0  0  0  0  0  0  0  0  0
  148.8690  152.6550  133.8750 C   0  0  0  0  0  0  0  0  0  0  0  0
  148.4260  153.0260  134.9980 O   0  0  0  0  0  0  0  0  0  0  0  0
  148.5620  153.4780  132.6440 C   0  0  0  0  0  0  0  0  0  0  0  0
  147.5620  154.5730  132.9160 C   0  0  0  0  0  0  0  0  0  0  0  0
  146.1810  154.2650  133.0220 C   0  0  0  0  0  0  0  0  0  0  0  0
  145.2370  155.2800  133.2470 C   0  0  0  0  0  0  0  0  0  0  0  0
  145.6990  156.5900  133.3470 C   0  0  0  0  0  0  0  0  0  0  0  0
  145.0100  157.7610  133.5720 C   0  0  0  0  0  0  0  0  0  0  0  0
  145.9770  158.7650  133.5700 C   0  0  0  0  0  0  0  0  0  0  0  0
  145.6620  160.2020  133.6950 C   0  0  0  0  0  0  0  0  0  0  0  0
  146.6990  161.1770  133.7420 N   0  0  0  0  0  0  0  0  0  0  0  0
  144.4580  160.5790  133.7210 O   0  0  0  0  0  0  0  0  0  0  0  0
  147.2140  158.2340  133.3620 N   0  0  0  0  0  0  0  0  0  0  0  0
  148.4820  158.9070  133.3680 C   0  0  0  0  0  0  0  0  0  0  0  0
  148.8740  159.4870  134.4160 O   0  0  0  0  0  0  0  0  0  0  0  0
  149.2720  159.0510  132.1010 C   0  0  0  0  0  0  0  0  0  0  0  0
  148.6370  160.3860  131.1040 Cl  0  0  0  0  0  0  0  0  0  0  0  0
  147.0270  156.9040  133.2230 C   0  0  0  0  0  0  0  0  0  0  0  0
  147.9910  155.9150  133.0110 C   0  0  0  0  0  0  0  0  0  0  0  0
  149.6451  150.9796  135.8384 H   0  0  0  0  0  0  0  0  0  0  0  0
  148.7249  149.8450  134.7931 H   0  0  0  0  0  0  0  0  0  0  0  0
  150.5208  149.8104  134.7931 H   0  0  0  0  0  0  0  0  0  0  0  0
  150.8685  152.1774  132.2253 H   0  0  0  0  0  0  0  0  0  0  0  0
  151.3646  150.5867  132.9058 H   0  0  0  0  0  0  0  0  0  0  0  0
  149.4955  153.9345  132.2831 H   0  0  0  0  0  0  0  0  0  0  0  0
  148.1240  152.8046  131.8925 H   0  0  0  0  0  0  0  0  0  0  0  0
  145.8467  153.2213  132.9270 H   0  0  0  0  0  0  0  0  0  0  0  0
  144.1660  155.0476  133.3413 H   0  0  0  0  0  0  0  0  0  0  0  0
  143.9266  157.8790  133.7216 H   0  0  0  0  0  0  0  0  0  0  0  0
  147.4590  161.1180  134.4550 H   0  0  0  0  0  0  0  0  0  0  0  0
  150.3226  159.2578  132.3531 H   0  0  0  0  0  0  0  0  0  0  0  0
  149.1916  158.1153  131.5282 H   0  0  0  0  0  0  0  0  0  0  0  0
  149.0560  156.1749  132.9205 H   0  0  0  0  0  0  0  0  0  0  0  0
  1  2  1  0
  2  3  1  0
  3  4  1  0
  4  5  2  0
  4  6  1  0
  2  7  1  0
  7  8  2  0
  7  9  1  0
  9 10  1  0
 10 11  2  0
 11 12  1  0
 12 13  2  0
 13 14  1  0
 14 15  2  0
 15 16  1  0
 16 17  1  0
 16 18  2  0
 15 19  1  0
 19 20  1  0
 20 21  2  0
 20 22  1  0
 22 23  1  0
 19 24  1  0
 24 25  2  0
 25 10  1  0
 24 13  1  0
  1 26  1  0
  1 27  1  0
  1 28  1  0
  3 29  1  0
  3 30  1  0
  9 31  1  0
  9 32  1  0
 11 33  1  0
 12 34  1  0
 14 35  1  0
 17 36  1  0
 22 37  1  0
 22 38  1  0
 25 39  1  0
M  CHG  2   6  -1  17  -1
M  END
>  <UniqueID>  (70) 
69

>  <SMILES>  (70) 
CN(CC(=O)[O-])C(=O)Cc1ccc2cc(C([NH-])=O)n(C(=O)CCl)c2c1

>  <Energy>  (70) 
75.93192268939347

>  <Genealogy>  (70) 
CN(CC(=O)[O-])C(=O)Cc1ccc2cc(C([NH-])=O)n(C(=O)CCl)c2c1 (protonated)
CN(CC(=O)[O-])C(=O)Cc1ccc2cc(C([NH-])=O)n(C(=O)CCl)c2c1 (3D coordinates assigned)
CN(CC(=O)[O-])C(=O)Cc1ccc2cc(C([NH-])=O)n(C(=O)CCl)c2c1 (optimized conformer: 75.93192268939347 kcal/mol)

>  <smiles>  (70) 
CN(CC(=O)O)C(=O)Cc1ccc2cc(C(N)=O)n(C(=O)CCl)c2c1

>  <score_type>  (70) 
oracle

>  <origin>  (70) 
adg

>  <m_score__min__energy>  (70) 
-7.29

>  <m_primary>  (70) 
energy

$$$$
70:0
     RDKit          3D

 68 71  0  0  0  0  0  0  0  0999 V2000
  138.9800  160.3930  130.1900 C   0  0  0  0  0  0  0  0  0  0  0  0
  139.0310  159.6560  131.4980 C   0  0  0  0  0  0  0  0  0  0  0  0
  137.9210  158.8810  131.9190 C   0  0  0  0  0  0  0  0  0  0  0  0
  137.9680  158.1610  133.1240 C   0  0  0  0  0  0  0  0  0  0  0  0
  139.1360  158.2300  133.8820 C   0  0  0  0  0  0  0  0  0  0  0  0
  139.4510  157.6280  135.0800 C   0  0  0  0  0  0  0  0  0  0  0  0
  140.7500  158.0420  135.3720 C   0  0  0  0  0  0  0  0  0  0  0  0
  141.4420  157.7140  136.6370 C   0  0  0  0  0  0  0  0  0  0  0  0
  142.0360  158.7550  137.4070 N   0  0  0  0  0  0  0  0  0  0  0  0
  141.5360  156.5230  137.0350 O   0  0  0  0  0  0  0  0  0  0  0  0
  141.2260  158.8560  134.3850 N   0  0  0  0  0  0  0  0  0  0  0  0
  142.5350  159.4400  134.2810 C   0  0  0  0  0  0  0  0  0  0  0  0
  142.8320  160.4460  134.9790 O   0  0  0  0  0  0  0  0  0  0  0  0
  143.4810  158.8750  133.4180 O   0  0  0  0  0  0  0  0  0  0  0  0
  143.4200  157.5250  132.9580 C   0  0  0  0  0  0  0  0  0  0  0  0
  144.5630  156.7030  133.5680 C   0  0  0  0  0  0  0  0  0  0  0  0
  144.7630  155.3550  132.8570 C   0  0  0  0  0  0  0  0  0  0  0  0
  143.8380  154.3170  133.3710 N   0  0  0  0  0  0  0  0  0  0  0  0
  142.4920  154.8490  133.7080 C   0  0  0  0  0  0  0  0  0  0  0  0
  141.3040  154.0760  133.0950 C   0  0  0  0  0  0  0  0  0  0  0  0
  141.0090  152.6930  133.7130 C   0  0  0  0  0  0  0  0  0  0  0  0
  141.9260  151.6450  133.2240 N   0  0  0  0  0  0  0  0  0  0  0  0
  141.4060  150.4070  132.6990 C   0  0  0  0  0  0  0  0  0  0  0  0
  141.9130  149.3160  133.0820 O   0  0  0  0  0  0  0  0  0  0  0  0
  140.2390  150.4050  131.7270 C   0  0  0  0  0  0  0  0  0  0  0  0
  139.4930  149.1230  131.6530 N   0  0  0  0  0  0  0  0  0  0  0  0
  138.2100  149.2010  130.9360 C   0  0  0  0  0  0  0  0  0  0  0  0
  138.3050  148.2880  129.7240 C   0  0  0  0  0  0  0  0  0  0  0  0
  139.3780  147.2860  130.0870 C   0  0  0  0  0  0  0  0  0  0  0  0
  140.2700  148.0080  131.0870 C   0  0  0  0  0  0  0  0  0  0  0  0
  143.3900  151.8290  133.2250 C   0  0  0  0  0  0  0  0  0  0  0  0
  143.8540  153.1120  132.5090 C   0  0  0  0  0  0  0  0  0  0  0  0
  140.2210  158.9700  133.4860 C   0  0  0  0  0  0  0  0  0  0  0  0
  140.2080  159.6830  132.2790 C   0  0  0  0  0  0  0  0  0  0  0  0
  138.9052  161.4738  130.3808 H   0  0  0  0  0  0  0  0  0  0  0  0
  139.8947  160.1845  129.6157 H   0  0  0  0  0  0  0  0  0  0  0  0
  138.1027  160.0605  129.6157 H   0  0  0  0  0  0  0  0  0  0  0  0
  137.0149  158.8433  131.2964 H   0  0  0  0  0  0  0  0  0  0  0  0
  137.1093  157.5609  133.4595 H   0  0  0  0  0  0  0  0  0  0  0  0
  138.8131  156.9618  135.6794 H   0  0  0  0  0  0  0  0  0  0  0  0
  142.4490  159.5980  136.9470 H   0  0  0  0  0  0  0  0  0  0  0  0
  142.4571  157.0836  133.2546 H   0  0  0  0  0  0  0  0  0  0  0  0
  143.5171  157.5153  131.8623 H   0  0  0  0  0  0  0  0  0  0  0  0
  145.4944  157.2834  133.4923 H   0  0  0  0  0  0  0  0  0  0  0  0
  144.3015  156.4928  134.6156 H   0  0  0  0  0  0  0  0  0  0  0  0
  144.5827  155.4905  131.7804 H   0  0  0  0  0  0  0  0  0  0  0  0
  145.7929  155.0185  133.0471 H   0  0  0  0  0  0  0  0  0  0  0  0
  142.3826  154.8280  134.8023 H   0  0  0  0  0  0  0  0  0  0  0  0
  142.4493  155.8614  133.2799 H   0  0  0  0  0  0  0  0  0  0  0  0
  140.4028  154.6960  133.2107 H   0  0  0  0  0  0  0  0  0  0  0  0
  141.5834  153.8812  132.0491 H   0  0  0  0  0  0  0  0  0  0  0  0
  141.1094  152.7669  134.8059 H   0  0  0  0  0  0  0  0  0  0  0  0
  139.9888  152.4070  133.4175 H   0  0  0  0  0  0  0  0  0  0  0  0
  139.5358  151.1929  132.0348 H   0  0  0  0  0  0  0  0  0  0  0  0
  140.6676  150.5722  130.7278 H   0  0  0  0  0  0  0  0  0  0  0  0
  137.3924  148.8689  131.5927 H   0  0  0  0  0  0  0  0  0  0  0  0
  138.0032  150.2357  130.6252 H   0  0  0  0  0  0  0  0  0  0  0  0
  137.3455  147.7815  129.5428 H   0  0  0  0  0  0  0  0  0  0  0  0
  138.5429  148.8398  128.8026 H   0  0  0  0  0  0  0  0  0  0  0  0
  138.9318  146.3902  130.5435 H   0  0  0  0  0  0  0  0  0  0  0  0
  139.9391  146.9440  129.2048 H   0  0  0  0  0  0  0  0  0  0  0  0
  140.5719  147.3168  131.8877 H   0  0  0  0  0  0  0  0  0  0  0  0
  141.1792  148.3821  130.5937 H   0  0  0  0  0  0  0  0  0  0  0  0
  143.7340  151.8703  134.2690 H   0  0  0  0  0  0  0  0  0  0  0  0
  143.8209  150.9799  132.6741 H   0  0  0  0  0  0  0  0  0  0  0  0
  144.8819  152.9562  132.1497 H   0  0  0  0  0  0  0  0  0  0  0  0
  143.1445  153.2955  131.6886 H   0  0  0  0  0  0  0  0  0  0  0  0
  141.0915  160.2489  131.9485 H   0  0  0  0  0  0  0  0  0  0  0  0
  1  2  1  0
  2  3  2  0
  3  4  1  0
  4  5  2  0
  5  6  1  0
  6  7  2  0
  7  8  1  0
  8  9  1  0
  8 10  2  0
  7 11  1  0
 11 12  1  0
 12 13  2  0
 12 14  1  0
 14 15  1  0
 15 16  1  0
 16 17  1  0
 17 18  1  0
 18 19  1  0
 19 20  1  0
 20 21  1  0
 21 22  1  0
 22 23  1  0
 23 24  2  0
 23 25  1  0
 25 26  1  0
 26 27  1  0
 27 28  1  0
 28 29  1  0
 29 30  1  0
 22 31  1  0
 31 32  1  0
 11 33  1  0
 33 34  2  0
 34  2  1  0
 33  5  1  0
 32 18  1  0
 30 26  1  0
  1 35  1  0
  1 36  1  0
  1 37  1  0
  3 38  1  0
  4 39  1  0
  6 40  1  0
  9 41  1  0
 15 42  1  0
 15 43  1  0
 16 44  1  0
 16 45  1  0
 17 46  1  0
 17 47  1  0
 19 48  1  0
 19 49  1  0
 20 50  1  0
 20 51  1  0
 21 52  1  0
 21 53  1  0
 25 54  1  0
 25 55  1  0
 27 56  1  0
 27 57  1  0
 28 58  1  0
 28 59  1  0
 29 60  1  0
 29 61  1  0
 30 62  1  0
 30 63  1  0
 31 64  1  0
 31 65  1  0
 32 66  1  0
 32 67  1  0
 34 68  1  0
M  CHG  1   9  -1
M  END
>  <UniqueID>  (71) 
70

>  <SMILES>  (71) 
Cc1ccc2cc(C([NH-])=O)n(C(=O)OCCCN3CCCN(C(=O)CN4CCCC4)CC3)c2c1

>  <Energy>  (71) 
125.94345142280427

>  <Genealogy>  (71) 
Cc1ccc2cc(C([NH-])=O)n(C(=O)OCCCN3CCCN(C(=O)CN4CCCC4)CC3)c2c1 (protonated)
Cc1ccc2cc(C([NH-])=O)n(C(=O)OCCCN3CCCN(C(=O)CN4CCCC4)CC3)c2c1 (3D coordinates assigned)
Cc1ccc2cc(C([NH-])=O)n(C(=O)OCCCN3CCCN(C(=O)CN4CCCC4)CC3)c2c1 (nonaromatic ring conformer: 125.94345142280427 kcal/mol)

>  <smiles>  (71) 
Cc1ccc2cc(C(N)=O)n(C(=O)OCCCN3CCCN(C(=O)CN4CCCC4)CC3)c2c1

>  <score_type>  (71) 
oracle

>  <origin>  (71) 
adg

>  <m_score__min__energy>  (71) 
-7.4699999999999998

>  <m_primary>  (71) 
energy

$$$$
71:0
     RDKit          3D

 44 45  0  0  0  0  0  0  0  0999 V2000
  146.7280  151.8680  132.2920 C   0  0  0  0  0  0  0  0  0  0  0  0
  147.4360  152.8490  133.1360 N   0  0  1  0  0  0  0  0  0  0  0  0
  148.8680  152.9750  132.7840 C   0  0  0  0  0  0  0  0  0  0  0  0
  149.5110  151.6690  132.3920 C   0  0  0  0  0  0  0  0  0  0  0  0
  149.6420  151.3680  131.1770 O   0  0  0  0  0  0  0  0  0  0  0  0
  149.9730  150.7960  133.3680 O   0  0  0  0  0  0  0  0  0  0  0  0
  146.7750  154.1410  133.1290 C   0  0  0  0  0  0  0  0  0  0  0  0
  145.7350  154.3110  132.4290 O   0  0  0  0  0  0  0  0  0  0  0  0
  147.3470  155.2750  133.8190 N   0  0  0  0  0  0  0  0  0  0  0  0
  147.4330  155.2480  135.2860 C   0  0  0  0  0  0  0  0  0  0  0  0
  147.3330  153.8390  135.7860 C   0  0  0  0  0  0  0  0  0  0  0  0
  146.2130  153.3520  136.0920 O   0  0  0  0  0  0  0  0  0  0  0  0
  148.4780  153.0590  135.9000 O   0  0  0  0  0  0  0  0  0  0  0  0
  147.8250  156.4340  133.1060 C   0  0  0  0  0  0  0  0  0  0  0  0
  148.9270  156.3820  132.4930 O   0  0  0  0  0  0  0  0  0  0  0  0
  147.0420  157.6390  133.0410 N   0  0  0  0  0  0  0  0  0  0  0  0
  147.4100  158.8430  132.5180 C   0  0  0  0  0  0  0  0  0  0  0  0
  148.7560  159.1910  132.0160 C   0  0  0  0  0  0  0  0  0  0  0  0
  149.2440  158.5940  130.8160 N   0  0  0  0  0  0  0  0  0  0  0  0
  149.4710  160.0360  132.6190 O   0  0  0  0  0  0  0  0  0  0  0  0
  146.3570  159.7540  132.6000 C   0  0  0  0  0  0  0  0  0  0  0  0
  145.3280  159.0660  133.1990 C   0  0  0  0  0  0  0  0  0  0  0  0
  144.0390  159.4840  133.5210 C   0  0  0  0  0  0  0  0  0  0  0  0
  143.1730  158.5510  134.1150 C   0  0  0  0  0  0  0  0  0  0  0  0
  143.6050  157.2240  134.3690 C   0  0  0  0  0  0  0  0  0  0  0  0
  142.6540  156.2360  134.9840 C   0  0  0  0  0  0  0  0  0  0  0  0
  141.6340  155.9570  134.0930 F   0  0  0  0  0  0  0  0  0  0  0  0
  142.1150  156.7630  136.1440 F   0  0  0  0  0  0  0  0  0  0  0  0
  144.9170  156.8330  134.0210 C   0  0  0  0  0  0  0  0  0  0  0  0
  145.7640  157.7900  133.4490 C   0  0  0  0  0  0  0  0  0  0  0  0
  146.2048  151.1430  132.9328 H   0  0  0  0  0  0  0  0  0  0  0  0
  145.9974  152.3903  131.6569 H   0  0  0  0  0  0  0  0  0  0  0  0
  147.4539  151.3391  131.6569 H   0  0  0  0  0  0  0  0  0  0  0  0
  147.4120  152.4600  134.1050 H   0  0  0  0  0  0  0  0  0  0  0  0
  148.9582  153.6741  131.9396 H   0  0  0  0  0  0  0  0  0  0  0  0
  149.3904  153.3344  133.6828 H   0  0  0  0  0  0  0  0  0  0  0  0
  148.3953  155.6777  135.6012 H   0  0  0  0  0  0  0  0  0  0  0  0
  146.6031  155.8363  135.7044 H   0  0  0  0  0  0  0  0  0  0  0  0
  149.3070  157.5550  130.7200 H   0  0  0  0  0  0  0  0  0  0  0  0
  146.3510  160.7996  132.2584 H   0  0  0  0  0  0  0  0  0  0  0  0
  143.7092  160.5133  133.3164 H   0  0  0  0  0  0  0  0  0  0  0  0
  142.1503  158.8523  134.3857 H   0  0  0  0  0  0  0  0  0  0  0  0
  143.2005  155.3114  135.2217 H   0  0  0  0  0  0  0  0  0  0  0  0
  145.2641  155.8038  134.1948 H   0  0  0  0  0  0  0  0  0  0  0  0
  1  2  1  0
  2  3  1  0
  3  4  1  0
  4  5  2  0
  4  6  1  0
  2  7  1  0
  7  8  2  0
  7  9  1  0
  9 10  1  0
 10 11  1  0
 11 12  2  0
 11 13  1  0
  9 14  1  0
 14 15  2  0
 14 16  1  0
 16 17  1  0
 17 18  1  0
 18 19  1  0
 18 20  2  0
 17 21  2  0
 21 22  1  0
 22 23  2  0
 23 24  1  0
 24 25  2  0
 25 26  1  0
 26 27  1  0
 26 28  1  0
 25 29  1  0
 29 30  2  0
 30 16  1  0
 30 22  1  0
  1 31  1  0
  1 32  1  0
  1 33  1  0
  2 34  1  1
  3 35  1  0
  3 36  1  0
 10 37  1  0
 10 38  1  0
 19 39  1  0
 21 40  1  0
 23 41  1  0
 24 42  1  0
 26 43  1  0
 29 44  1  0
M  CHG  4   2   1   6  -1  13  -1  19  -1
M  END
>  <UniqueID>  (72) 
71

>  <SMILES>  (72) 
C[N@@H+](CC(=O)[O-])C(=O)N(CC(=O)[O-])C(=O)n1c(C([NH-])=O)cc2ccc(C(F)F)cc21

>  <Energy>  (72) 
87.69530087756435

>  <Genealogy>  (72) 
C[NH+](CC(=O)[O-])C(=O)N(CC(=O)[O-])C(=O)n1c(C([NH-])=O)cc2ccc(C(F)F)cc21 (protonated)
C[N@@H+](CC(=O)[O-])C(=O)N(CC(=O)[O-])C(=O)n1c(C([NH-])=O)cc2ccc(C(F)F)cc21 (chirality)
C[N@@H+](CC(=O)[O-])C(=O)N(CC(=O)[O-])C(=O)n1c(C([NH-])=O)cc2ccc(C(F)F)cc21 (3D coordinates assigned)
C[N@@H+](CC(=O)[O-])C(=O)N(CC(=O)[O-])C(=O)n1c(C([NH-])=O)cc2ccc(C(F)F)cc21 (optimized conformer: 87.69530087756435 kcal/mol)

>  <smiles>  (72) 
CN(CC(=O)O)C(=O)N(CC(=O)O)C(=O)n1c(C(N)=O)cc2ccc(C(F)F)cc21

>  <score_type>  (72) 
oracle

>  <origin>  (72) 
adg

>  <m_score__min__energy>  (72) 
-6.1100000000000003

>  <m_primary>  (72) 
energy

$$$$
72:0
     RDKit          3D

 47 48  0  0  0  0  0  0  0  0999 V2000
  138.8860  160.2730  131.2440 C   0  0  0  0  0  0  0  0  0  0  0  0
  139.8900  159.3730  132.4080 S   0  0  0  0  0  0  0  0  0  0  0  0
  140.6390  158.3010  131.6680 O   0  0  0  0  0  0  0  0  0  0  0  0
  140.8810  160.3060  133.0450 O   0  0  0  0  0  0  0  0  0  0  0  0
  138.8720  158.6020  133.6660 C   0  0  0  0  0  0  0  0  0  0  0  0
  139.4470  157.2530  134.1430 C   0  0  1  0  0  0  0  0  0  0  0  0
  138.8390  156.0860  133.3510 C   0  0  0  0  0  0  0  0  0  0  0  0
  139.7310  155.6450  132.3630 O   0  0  0  0  0  0  0  0  0  0  0  0
  140.9090  157.2360  134.0120 N   0  0  0  0  0  0  0  0  0  0  0  0
  141.7810  157.6400  135.0800 C   0  0  0  0  0  0  0  0  0  0  0  0
  141.3050  157.9100  136.2170 O   0  0  0  0  0  0  0  0  0  0  0  0
  143.2690  157.6680  134.8610 C   0  0  0  0  0  0  0  0  0  0  0  0
  143.6530  157.2730  133.4620 C   0  0  0  0  0  0  0  0  0  0  0  0
  143.1350  157.8640  132.4770 O   0  0  0  0  0  0  0  0  0  0  0  0
  144.6900  156.3060  133.2400 N   0  0  0  0  0  0  0  0  0  0  0  0
  144.5690  154.9540  133.1260 C   0  0  0  0  0  0  0  0  0  0  0  0
  143.2980  154.2050  133.0850 C   0  0  0  0  0  0  0  0  0  0  0  0
  142.0570  154.9100  133.0910 N   0  0  0  0  0  0  0  0  0  0  0  0
  143.2950  152.9470  133.0580 O   0  0  0  0  0  0  0  0  0  0  0  0
  145.8240  154.3650  132.9830 C   0  0  0  0  0  0  0  0  0  0  0  0
  146.7220  155.4090  133.0030 C   0  0  0  0  0  0  0  0  0  0  0  0
  148.1100  155.4030  132.9070 C   0  0  0  0  0  0  0  0  0  0  0  0
  148.7790  156.6360  132.9760 C   0  0  0  0  0  0  0  0  0  0  0  0
  148.0570  157.8490  133.1170 C   0  0  0  0  0  0  0  0  0  0  0  0
  148.7920  159.1590  133.2410 C   0  0  0  0  0  0  0  0  0  0  0  0
  149.1900  159.3760  134.5490 F   0  0  0  0  0  0  0  0  0  0  0  0
  149.9090  159.1300  132.4290 F   0  0  0  0  0  0  0  0  0  0  0  0
  147.9800  160.2100  132.8550 F   0  0  0  0  0  0  0  0  0  0  0  0
  146.6470  157.8100  133.2370 C   0  0  0  0  0  0  0  0  0  0  0  0
  146.0090  156.5690  133.1580 C   0  0  0  0  0  0  0  0  0  0  0  0
  138.1747  160.9106  131.7894 H   0  0  0  0  0  0  0  0  0  0  0  0
  139.5311  160.9009  130.6119 H   0  0  0  0  0  0  0  0  0  0  0  0
  138.3321  159.5633  130.6119 H   0  0  0  0  0  0  0  0  0  0  0  0
  138.8020  159.2809  134.5287 H   0  0  0  0  0  0  0  0  0  0  0  0
  137.8834  158.4076  133.2245 H   0  0  0  0  0  0  0  0  0  0  0  0
  139.1833  157.1330  135.2042 H   0  0  0  0  0  0  0  0  0  0  0  0
  138.6218  155.2558  134.0392 H   0  0  0  0  0  0  0  0  0  0  0  0
  137.9130  156.4293  132.8665 H   0  0  0  0  0  0  0  0  0  0  0  0
  140.4990  156.2730  132.3890 H   0  0  0  0  0  0  0  0  0  0  0  0
  141.3370  156.8730  133.1300 H   0  0  0  0  0  0  0  0  0  0  0  0
  143.6345  158.6877  135.0525 H   0  0  0  0  0  0  0  0  0  0  0  0
  143.7218  156.9398  135.5499 H   0  0  0  0  0  0  0  0  0  0  0  0
  141.9480  155.8110  132.5750 H   0  0  0  0  0  0  0  0  0  0  0  0
  146.0495  153.2936  132.8767 H   0  0  0  0  0  0  0  0  0  0  0  0
  148.6659  154.4622  132.7810 H   0  0  0  0  0  0  0  0  0  0  0  0
  149.8773  156.6615  132.9200 H   0  0  0  0  0  0  0  0  0  0  0  0
  146.0682  158.7330  133.3886 H   0  0  0  0  0  0  0  0  0  0  0  0
  1  2  1  0
  2  3  2  0
  2  4  2  0
  2  5  1  0
  5  6  1  0
  6  7  1  0
  7  8  1  0
  6  9  1  0
  9 10  1  0
 10 11  2  0
 10 12  1  0
 12 13  1  0
 13 14  2  0
 13 15  1  0
 15 16  1  0
 16 17  1  0
 17 18  1  0
 17 19  2  0
 16 20  2  0
 20 21  1  0
 21 22  2  0
 22 23  1  0
 23 24  2  0
 24 25  1  0
 25 26  1  0
 25 27  1  0
 25 28  1  0
 24 29  1  0
 29 30  2  0
 30 15  1  0
 30 21  1  0
  1 31  1  0
  1 32  1  0
  1 33  1  0
  5 34  1  0
  5 35  1  0
  6 36  1  1
  7 37  1  0
  7 38  1  0
  8 39  1  0
  9 40  1  0
 12 41  1  0
 12 42  1  0
 18 43  1  0
 20 44  1  0
 22 45  1  0
 23 46  1  0
 29 47  1  0
M  CHG  1  18  -1
M  END
>  <UniqueID>  (73) 
72

>  <SMILES>  (73) 
CS(=O)(=O)C[C@@H](CO)NC(=O)CC(=O)n1c(C([NH-])=O)cc2ccc(C(F)(F)F)cc21

>  <Energy>  (73) 
73.42338818606991

>  <Genealogy>  (73) 
CS(=O)(=O)CC(CO)NC(=O)CC(=O)n1c(C([NH-])=O)cc2ccc(C(F)(F)F)cc21 (protonated)
CS(=O)(=O)C[C@@H](CO)NC(=O)CC(=O)n1c(C([NH-])=O)cc2ccc(C(F)(F)F)cc21 (chirality)
CS(=O)(=O)C[C@@H](CO)NC(=O)CC(=O)n1c(C([NH-])=O)cc2ccc(C(F)(F)F)cc21 (3D coordinates assigned)
CS(=O)(=O)C[C@@H](CO)NC(=O)CC(=O)n1c(C([NH-])=O)cc2ccc(C(F)(F)F)cc21 (optimized conformer: 73.42338818606991 kcal/mol)

>  <smiles>  (73) 
CS(=O)(=O)CC(CO)NC(=O)CC(=O)n1c(C(N)=O)cc2ccc(C(F)(F)F)cc21

>  <score_type>  (73) 
oracle

>  <origin>  (73) 
adg

>  <m_score__min__energy>  (73) 
-6.3200000000000003

>  <m_primary>  (73) 
energy

$$$$
73:0
     RDKit          3D

 37 38  0  0  0  0  0  0  0  0999 V2000
  149.5900  160.1970  131.4730 C   0  0  0  0  0  0  0  0  0  0  0  0
  148.5820  159.3120  132.1450 C   0  0  0  0  0  0  0  0  0  0  0  0
  147.4330  159.8780  132.7500 C   0  0  0  0  0  0  0  0  0  0  0  0
  146.4950  159.0630  133.4040 C   0  0  0  0  0  0  0  0  0  0  0  0
  146.7420  157.6940  133.4540 C   0  0  0  0  0  0  0  0  0  0  0  0
  145.9930  156.6810  134.0060 C   0  0  0  0  0  0  0  0  0  0  0  0
  146.7150  155.5140  133.7630 C   0  0  0  0  0  0  0  0  0  0  0  0
  146.3210  154.1810  134.2690 C   0  0  0  0  0  0  0  0  0  0  0  0
  146.1680  153.0770  133.3750 N   0  0  0  0  0  0  0  0  0  0  0  0
  146.0830  154.0140  135.4940 O   0  0  0  0  0  0  0  0  0  0  0  0
  147.8640  155.7940  133.0860 N   0  0  0  0  0  0  0  0  0  0  0  0
  148.8350  154.8580  132.5910 C   0  0  0  0  0  0  0  0  0  0  0  0
  150.0100  155.2430  132.3370 O   0  0  0  0  0  0  0  0  0  0  0  0
  148.4630  153.5270  132.3640 O   0  0  0  0  0  0  0  0  0  0  0  0
  149.3750  152.5030  131.9720 C   0  0  0  0  0  0  0  0  0  0  0  0
  148.6550  151.1490  131.8490 C   0  0  2  0  0  0  0  0  0  0  0  0
  147.3480  151.2260  132.3600 O   0  0  0  0  0  0  0  0  0  0  0  0
  149.4490  150.0330  132.5490 C   0  0  0  0  0  0  0  0  0  0  0  0
  148.8390  149.6860  133.7630 O   0  0  0  0  0  0  0  0  0  0  0  0
  147.8670  157.1340  132.9050 C   0  0  0  0  0  0  0  0  0  0  0  0
  148.8090  157.9210  132.2310 C   0  0  0  0  0  0  0  0  0  0  0  0
  150.1854  160.7198  132.2360 H   0  0  0  0  0  0  0  0  0  0  0  0
  150.2544  159.5851  130.8452 H   0  0  0  0  0  0  0  0  0  0  0  0
  149.0692  160.9350  130.8452 H   0  0  0  0  0  0  0  0  0  0  0  0
  147.2741  160.9656  132.7071 H   0  0  0  0  0  0  0  0  0  0  0  0
  145.5926  159.4932  133.8628 H   0  0  0  0  0  0  0  0  0  0  0  0
  145.0292  156.7725  134.5282 H   0  0  0  0  0  0  0  0  0  0  0  0
  145.8520  152.1500  133.7360 H   0  0  0  0  0  0  0  0  0  0  0  0
  146.4050  153.1630  132.3610 H   0  0  0  0  0  0  0  0  0  0  0  0
  149.8168  152.7663  130.9997 H   0  0  0  0  0  0  0  0  0  0  0  0
  150.1597  152.4171  132.7381 H   0  0  0  0  0  0  0  0  0  0  0  0
  148.5904  150.8999  130.7795 H   0  0  0  0  0  0  0  0  0  0  0  0
  147.4180  151.3530  133.3430 H   0  0  0  0  0  0  0  0  0  0  0  0
  149.4843  149.1489  131.8955 H   0  0  0  0  0  0  0  0  0  0  0  0
  150.4680  150.3941  132.7523 H   0  0  0  0  0  0  0  0  0  0  0  0
  147.9180  150.0560  133.7370 H   0  0  0  0  0  0  0  0  0  0  0  0
  149.7035  157.4669  131.7798 H   0  0  0  0  0  0  0  0  0  0  0  0
  1  2  1  0
  2  3  2  0
  3  4  1  0
  4  5  2  0
  5  6  1  0
  6  7  2  0
  7  8  1  0
  8  9  1  0
  8 10  2  0
  7 11  1  0
 11 12  1  0
 12 13  2  0
 12 14  1  0
 14 15  1  0
 15 16  1  0
 16 17  1  0
 16 18  1  0
 18 19  1  0
 11 20  1  0
 20 21  2  0
 21  2  1  0
 20  5  1  0
  1 22  1  0
  1 23  1  0
  1 24  1  0
  3 25  1  0
  4 26  1  0
  6 27  1  0
  9 28  1  0
  9 29  1  0
 15 30  1  0
 15 31  1  0
 16 32  1  6
 17 33  1  0
 18 34  1  0
 18 35  1  0
 19 36  1  0
 21 37  1  0
M  END
>  <UniqueID>  (74) 
73

>  <SMILES>  (74) 
Cc1ccc2cc(C(N)=O)n(C(=O)OC[C@H](O)CO)c2c1

>  <Energy>  (74) 
71.24045791864012

>  <Genealogy>  (74) 
Cc1ccc2cc(C(N)=O)n(C(=O)OC[C@H](O)CO)c2c1 (3D coordinates assigned)
Cc1ccc2cc(C(N)=O)n(C(=O)OC[C@H](O)CO)c2c1 (optimized conformer: 71.24045791864012 kcal/mol)

>  <smiles>  (74) 
Cc1ccc2cc(C(N)=O)n(C(=O)OC[C@H](O)CO)c2c1

>  <score_type>  (74) 
oracle

>  <origin>  (74) 
adg

>  <m_score__min__energy>  (74) 
-6.4800000000000004

>  <m_primary>  (74) 
energy

$$$$
74:0
     RDKit          3D

 47 48  0  0  0  0  0  0  0  0999 V2000
  141.5690  158.8260  134.3140 C   0  0  0  0  0  0  0  0  0  0  0  0
  142.9870  159.2240  134.0270 C   0  0  0  0  0  0  0  0  0  0  0  0
  143.3600  160.5920  134.0540 C   0  0  0  0  0  0  0  0  0  0  0  0
  144.6830  160.9770  133.7820 C   0  0  0  0  0  0  0  0  0  0  0  0
  145.5980  159.9810  133.4500 C   0  0  0  0  0  0  0  0  0  0  0  0
  146.9520  160.0640  133.2160 C   0  0  0  0  0  0  0  0  0  0  0  0
  147.3680  158.7550  132.9860 C   0  0  0  0  0  0  0  0  0  0  0  0
  148.7730  158.3800  132.7160 C   0  0  0  0  0  0  0  0  0  0  0  0
  149.1150  157.0860  132.2170 N   0  0  0  0  0  0  0  0  0  0  0  0
  149.6860  159.2310  132.8960 O   0  0  0  0  0  0  0  0  0  0  0  0
  146.3130  157.8960  133.0680 N   0  0  0  0  0  0  0  0  0  0  0  0
  146.3580  156.4640  133.0040 C   0  0  0  0  0  0  0  0  0  0  0  0
  146.6150  155.9020  131.9060 O   0  0  0  0  0  0  0  0  0  0  0  0
  146.0490  155.6430  134.2260 C   0  0  0  0  0  0  0  0  0  0  0  0
  146.6990  154.3830  134.1610 O   0  0  0  0  0  0  0  0  0  0  0  0
  148.0970  154.5310  134.2910 C   0  0  0  0  0  0  0  0  0  0  0  0
  148.7690  153.9120  133.0970 C   0  0  0  0  0  0  0  0  0  0  0  0
  149.4570  154.6650  132.3540 O   0  0  0  0  0  0  0  0  0  0  0  0
  148.6240  152.5120  132.7520 N   0  0  0  0  0  0  0  0  0  0  0  0
  147.2870  152.0430  132.3580 C   0  0  0  0  0  0  0  0  0  0  0  0
  149.7670  151.5750  132.7260 C   0  0  2  0  0  0  0  0  0  0  0  0
  149.9390  150.9540  131.3300 C   0  0  0  0  0  0  0  0  0  0  0  0
  149.6200  150.5370  133.8080 C   0  0  0  0  0  0  0  0  0  0  0  0
  148.8620  149.5390  133.6560 O   0  0  0  0  0  0  0  0  0  0  0  0
  150.2860  150.7090  135.0160 O   0  0  0  0  0  0  0  0  0  0  0  0
  145.2390  158.6590  133.3690 C   0  0  0  0  0  0  0  0  0  0  0  0
  143.9390  158.2420  133.6800 C   0  0  0  0  0  0  0  0  0  0  0  0
  141.4135  158.7824  135.4021 H   0  0  0  0  0  0  0  0  0  0  0  0
  140.8843  159.5667  133.8752 H   0  0  0  0  0  0  0  0  0  0  0  0
  141.3697  157.8372  133.8752 H   0  0  0  0  0  0  0  0  0  0  0  0
  142.6067  161.3581  134.2900 H   0  0  0  0  0  0  0  0  0  0  0  0
  144.9872  162.0330  133.8297 H   0  0  0  0  0  0  0  0  0  0  0  0
  147.5735  160.9716  133.2116 H   0  0  0  0  0  0  0  0  0  0  0  0
  150.1170  156.8150  132.1160 H   0  0  0  0  0  0  0  0  0  0  0  0
  148.3860  156.4480  131.8330 H   0  0  0  0  0  0  0  0  0  0  0  0
  146.3949  156.1821  135.1202 H   0  0  0  0  0  0  0  0  0  0  0  0
  144.9625  155.4784  134.2762 H   0  0  0  0  0  0  0  0  0  0  0  0
  148.3511  155.5999  134.3440 H   0  0  0  0  0  0  0  0  0  0  0  0
  148.4392  154.0320  135.2097 H   0  0  0  0  0  0  0  0  0  0  0  0
  146.6915  151.8341  133.2589 H   0  0  0  0  0  0  0  0  0  0  0  0
  146.7875  152.8196  131.7602 H   0  0  0  0  0  0  0  0  0  0  0  0
  147.3820  151.1245  131.7602 H   0  0  0  0  0  0  0  0  0  0  0  0
  150.6910  152.1338  132.9356 H   0  0  0  0  0  0  0  0  0  0  0  0
  150.2313  149.8984  131.4317 H   0  0  0  0  0  0  0  0  0  0  0  0
  148.9888  151.0199  130.7798 H   0  0  0  0  0  0  0  0  0  0  0  0
  150.7199  151.4994  130.7798 H   0  0  0  0  0  0  0  0  0  0  0  0
  143.6669  157.1765  133.6545 H   0  0  0  0  0  0  0  0  0  0  0  0
  1  2  1  0
  2  3  2  0
  3  4  1  0
  4  5  2  0
  5  6  1  0
  6  7  2  0
  7  8  1  0
  8  9  1  0
  8 10  2  0
  7 11  1  0
 11 12  1  0
 12 13  2  0
 12 14  1  0
 14 15  1  0
 15 16  1  0
 16 17  1  0
 17 18  2  0
 17 19  1  0
 19 20  1  0
 19 21  1  0
 21 22  1  0
 21 23  1  0
 23 24  2  0
 23 25  1  0
 11 26  1  0
 26 27  2  0
 27  2  1  0
 26  5  1  0
  1 28  1  0
  1 29  1  0
  1 30  1  0
  3 31  1  0
  4 32  1  0
  6 33  1  0
  9 34  1  0
  9 35  1  0
 14 36  1  0
 14 37  1  0
 16 38  1  0
 16 39  1  0
 20 40  1  0
 20 41  1  0
 20 42  1  0
 21 43  1  1
 22 44  1  0
 22 45  1  0
 22 46  1  0
 27 47  1  0
M  CHG  1  25  -1
M  END
>  <UniqueID>  (75) 
74

>  <SMILES>  (75) 
Cc1ccc2cc(C(N)=O)n(C(=O)COCC(=O)N(C)[C@H](C)C(=O)[O-])c2c1

>  <Energy>  (75) 
87.98449199844876

>  <Genealogy>  (75) 
Cc1ccc2cc(C(N)=O)n(C(=O)COCC(=O)N(C)[C@H](C)C(=O)[O-])c2c1 (protonated)
Cc1ccc2cc(C(N)=O)n(C(=O)COCC(=O)N(C)[C@H](C)C(=O)[O-])c2c1 (3D coordinates assigned)
Cc1ccc2cc(C(N)=O)n(C(=O)COCC(=O)N(C)[C@H](C)C(=O)[O-])c2c1 (optimized conformer: 87.98449199844876 kcal/mol)

>  <smiles>  (75) 
Cc1ccc2cc(C(N)=O)n(C(=O)COCC(=O)N(C)[C@H](C)C(=O)O)c2c1

>  <score_type>  (75) 
oracle

>  <origin>  (75) 
adg

>  <m_score__min__energy>  (75) 
-7.3499999999999996

>  <m_primary>  (75) 
energy

$$$$
75:0
     RDKit          3D

 55 56  0  0  0  0  0  0  0  0999 V2000
  139.0010  159.8430  130.0350 C   0  0  0  0  0  0  0  0  0  0  0  0
  139.1030  159.2570  131.4110 C   0  0  0  0  0  0  0  0  0  0  0  0
  137.9770  158.6290  132.0010 C   0  0  0  0  0  0  0  0  0  0  0  0
  138.0500  158.1070  133.3030 C   0  0  0  0  0  0  0  0  0  0  0  0
  139.2490  158.2470  133.9960 C   0  0  0  0  0  0  0  0  0  0  0  0
  139.5900  157.8500  135.2700 C   0  0  0  0  0  0  0  0  0  0  0  0
  140.9030  158.2790  135.4550 C   0  0  0  0  0  0  0  0  0  0  0  0
  141.6200  158.1670  136.7430 C   0  0  0  0  0  0  0  0  0  0  0  0
  141.8650  156.8960  137.3410 N   0  0  0  0  0  0  0  0  0  0  0  0
  142.0710  159.2040  137.2990 O   0  0  0  0  0  0  0  0  0  0  0  0
  141.3620  158.9040  134.3330 N   0  0  0  0  0  0  0  0  0  0  0  0
  142.6630  159.4620  134.1000 C   0  0  0  0  0  0  0  0  0  0  0  0
  143.0470  160.4620  134.7650 O   0  0  0  0  0  0  0  0  0  0  0  0
  143.5020  158.8840  133.1420 O   0  0  0  0  0  0  0  0  0  0  0  0
  144.2800  157.7120  133.3840 C   0  0  0  0  0  0  0  0  0  0  0  0
  143.4670  156.6510  134.0640 C   0  0  0  0  0  0  0  0  0  0  0  0
  143.7810  156.2800  135.2270 O   0  0  0  0  0  0  0  0  0  0  0  0
  142.3200  156.0940  133.4090 N   0  0  0  0  0  0  0  0  0  0  0  0
  141.2780  155.3470  134.1050 C   0  0  0  0  0  0  0  0  0  0  0  0
  140.4690  154.5280  133.1460 C   0  0  0  0  0  0  0  0  0  0  0  0
  139.3010  154.9030  132.8500 O   0  0  0  0  0  0  0  0  0  0  0  0
  140.9970  153.3460  132.6080 O   0  0  0  0  0  0  0  0  0  0  0  0
  141.7190  152.3840  133.3750 C   0  0  0  0  0  0  0  0  0  0  0  0
  143.0100  151.9640  132.6340 C   0  0  0  0  0  0  0  0  0  0  0  0
  144.1680  152.8990  132.7930 N   0  0  0  0  0  0  0  0  0  0  0  0
  145.4500  152.2400  132.4450 C   0  0  0  0  0  0  0  0  0  0  0  0
  143.9640  154.0410  131.8660 C   0  0  0  0  0  0  0  0  0  0  0  0
  144.2420  153.4300  134.1760 C   0  0  0  0  0  0  0  0  0  0  0  0
  140.3360  158.8820  133.4550 C   0  0  0  0  0  0  0  0  0  0  0  0
  140.2980  159.3950  132.1520 C   0  0  0  0  0  0  0  0  0  0  0  0
  138.8128  160.9242  130.1099 H   0  0  0  0  0  0  0  0  0  0  0  0
  139.9425  159.6714  129.4927 H   0  0  0  0  0  0  0  0  0  0  0  0
  138.1728  159.3634  129.4927 H   0  0  0  0  0  0  0  0  0  0  0  0
  137.0377  158.5499  131.4340 H   0  0  0  0  0  0  0  0  0  0  0  0
  137.1861  157.6030  133.7609 H   0  0  0  0  0  0  0  0  0  0  0  0
  138.9589  157.3084  135.9899 H   0  0  0  0  0  0  0  0  0  0  0  0
  142.7330  156.3570  137.1260 H   0  0  0  0  0  0  0  0  0  0  0  0
  144.6482  157.3214  132.4239 H   0  0  0  0  0  0  0  0  0  0  0  0
  145.1198  157.9815  134.0414 H   0  0  0  0  0  0  0  0  0  0  0  0
  141.7467  154.6782  134.8419 H   0  0  0  0  0  0  0  0  0  0  0  0
  140.6085  156.0634  134.6036 H   0  0  0  0  0  0  0  0  0  0  0  0
  141.9856  152.8222  134.3481 H   0  0  0  0  0  0  0  0  0  0  0  0
  141.0863  151.4962  133.5214 H   0  0  0  0  0  0  0  0  0  0  0  0
  143.3145  150.9773  133.0132 H   0  0  0  0  0  0  0  0  0  0  0  0
  142.7614  151.9649  131.5625 H   0  0  0  0  0  0  0  0  0  0  0  0
  145.9834  151.9658  133.3671 H   0  0  0  0  0  0  0  0  0  0  0  0
  145.2482  151.3339  131.8549 H   0  0  0  0  0  0  0  0  0  0  0  0
  146.0694  152.9315  131.8549 H   0  0  0  0  0  0  0  0  0  0  0  0
  143.7998  154.9603  132.4473 H   0  0  0  0  0  0  0  0  0  0  0  0
  144.8547  154.1623  131.2320 H   0  0  0  0  0  0  0  0  0  0  0  0
  143.0864  153.8464  131.2320 H   0  0  0  0  0  0  0  0  0  0  0  0
  144.1268  152.6035  134.8927 H   0  0  0  0  0  0  0  0  0  0  0  0
  145.2166  153.9161  134.3304 H   0  0  0  0  0  0  0  0  0  0  0  0
  143.4375  154.1641  134.3304 H   0  0  0  0  0  0  0  0  0  0  0  0
  141.1769  159.8930  131.7165 H   0  0  0  0  0  0  0  0  0  0  0  0
  1  2  1  0
  2  3  2  0
  3  4  1  0
  4  5  2  0
  5  6  1  0
  6  7  2  0
  7  8  1  0
  8  9  1  0
  8 10  2  0
  7 11  1  0
 11 12  1  0
 12 13  2  0
 12 14  1  0
 14 15  1  0
 15 16  1  0
 16 17  2  0
 16 18  1  0
 18 19  1  0
 19 20  1  0
 20 21  2  0
 20 22  1  0
 22 23  1  0
 23 24  1  0
 24 25  1  0
 25 26  1  0
 25 27  1  0
 25 28  1  0
 11 29  1  0
 29 30  2  0
 30  2  1  0
 29  5  1  0
  1 31  1  0
  1 32  1  0
  1 33  1  0
  3 34  1  0
  4 35  1  0
  6 36  1  0
  9 37  1  0
 15 38  1  0
 15 39  1  0
 19 40  1  0
 19 41  1  0
 23 42  1  0
 23 43  1  0
 24 44  1  0
 24 45  1  0
 26 46  1  0
 26 47  1  0
 26 48  1  0
 27 49  1  0
 27 50  1  0
 27 51  1  0
 28 52  1  0
 28 53  1  0
 28 54  1  0
 30 55  1  0
M  CHG  3   9  -1  18  -1  25   1
M  END
>  <UniqueID>  (76) 
75

>  <SMILES>  (76) 
Cc1ccc2cc(C([NH-])=O)n(C(=O)OCC(=O)[N-]CC(=O)OCC[N+](C)(C)C)c2c1

>  <Energy>  (76) 
92.05046182849713

>  <Genealogy>  (76) 
Cc1ccc2cc(C([NH-])=O)n(C(=O)OCC(=O)[N-]CC(=O)OCC[N+](C)(C)C)c2c1 (protonated)
Cc1ccc2cc(C([NH-])=O)n(C(=O)OCC(=O)[N-]CC(=O)OCC[N+](C)(C)C)c2c1 (3D coordinates assigned)
Cc1ccc2cc(C([NH-])=O)n(C(=O)OCC(=O)[N-]CC(=O)OCC[N+](C)(C)C)c2c1 (optimized conformer: 92.05046182849713 kcal/mol)

>  <smiles>  (76) 
Cc1ccc2cc(C(N)=O)n(C(=O)OCC(=O)NCC(=O)OCC[N+](C)(C)C)c2c1

>  <score_type>  (76) 
oracle

>  <origin>  (76) 
adg

>  <m_score__min__energy>  (76) 
-6.1500000000000004

>  <m_primary>  (76) 
energy

$$$$
76:0
     RDKit          3D

 44 45  0  0  0  0  0  0  0  0999 V2000
  139.2390  157.7360  132.2770 C   0  0  0  0  0  0  0  0  0  0  0  0
  140.0140  158.2300  133.4270 N   0  0  0  0  0  0  0  0  0  0  0  0
  139.4200  157.8240  134.7250 C   0  0  0  0  0  0  0  0  0  0  0  0
  140.1640  158.3570  135.9640 C   0  0  0  0  0  0  0  0  0  0  0  0
  140.6970  157.2390  136.7500 C   0  0  0  0  0  0  0  0  0  0  0  0
  141.1150  156.3580  137.3720 N   0  0  0  0  0  0  0  0  0  0  0  0
  140.2750  159.6790  133.3020 C   0  0  0  0  0  0  0  0  0  0  0  0
  141.7230  159.9950  133.5390 C   0  0  0  0  0  0  0  0  0  0  0  0
  142.0620  161.1900  133.7520 O   0  0  0  0  0  0  0  0  0  0  0  0
  142.7020  158.9440  133.5300 N   0  0  0  0  0  0  0  0  0  0  0  0
  144.1110  159.1560  133.7140 C   0  0  0  0  0  0  0  0  0  0  0  0
  144.5580  160.3090  133.9600 O   0  0  0  0  0  0  0  0  0  0  0  0
  145.0190  158.0450  133.6470 N   0  0  0  0  0  0  0  0  0  0  0  0
  144.8200  156.7860  134.1280 C   0  0  0  0  0  0  0  0  0  0  0  0
  143.5620  156.2700  134.7060 C   0  0  0  0  0  0  0  0  0  0  0  0
  143.5390  155.6270  135.9810 N   0  0  0  0  0  0  0  0  0  0  0  0
  142.4810  156.4420  134.0820 O   0  0  0  0  0  0  0  0  0  0  0  0
  145.9740  156.0190  133.9860 C   0  0  0  0  0  0  0  0  0  0  0  0
  146.8940  156.8530  133.3920 C   0  0  0  0  0  0  0  0  0  0  0  0
  148.2180  156.6160  133.0380 C   0  0  0  0  0  0  0  0  0  0  0  0
  148.9510  157.6760  132.4790 C   0  0  0  0  0  0  0  0  0  0  0  0
  148.3540  158.9490  132.2960 C   0  0  0  0  0  0  0  0  0  0  0  0
  149.1500  160.0870  131.7270 C   0  0  0  0  0  0  0  0  0  0  0  0
  148.3620  160.8100  130.8520 F   0  0  0  0  0  0  0  0  0  0  0  0
  150.2540  159.5960  131.0530 F   0  0  0  0  0  0  0  0  0  0  0  0
  147.0090  159.1550  132.6770 C   0  0  0  0  0  0  0  0  0  0  0  0
  146.2940  158.0720  133.2020 C   0  0  0  0  0  0  0  0  0  0  0  0
  138.3628  157.1775  132.6380 H   0  0  0  0  0  0  0  0  0  0  0  0
  138.9048  158.5881  131.6668 H   0  0  0  0  0  0  0  0  0  0  0  0
  139.8703  157.0733  131.6668 H   0  0  0  0  0  0  0  0  0  0  0  0
  138.3851  158.1951  134.7600 H   0  0  0  0  0  0  0  0  0  0  0  0
  139.4860  156.7269  134.7691 H   0  0  0  0  0  0  0  0  0  0  0  0
  140.9936  159.0028  135.6406 H   0  0  0  0  0  0  0  0  0  0  0  0
  139.4627  158.9328  136.5857 H   0  0  0  0  0  0  0  0  0  0  0  0
  139.9978  160.0069  132.2893 H   0  0  0  0  0  0  0  0  0  0  0  0
  139.6762  160.2061  134.0594 H   0  0  0  0  0  0  0  0  0  0  0  0
  142.3700  157.9600  133.4110 H   0  0  0  0  0  0  0  0  0  0  0  0
  142.6490  155.2190  136.3440 H   0  0  0  0  0  0  0  0  0  0  0  0
  144.3730  155.6370  136.6080 H   0  0  0  0  0  0  0  0  0  0  0  0
  146.1192  154.9704  134.2848 H   0  0  0  0  0  0  0  0  0  0  0  0
  148.6773  155.6283  133.1911 H   0  0  0  0  0  0  0  0  0  0  0  0
  149.9977  157.5170  132.1805 H   0  0  0  0  0  0  0  0  0  0  0  0
  149.4848  160.7395  132.5469 H   0  0  0  0  0  0  0  0  0  0  0  0
  146.5357  160.1415  132.5639 H   0  0  0  0  0  0  0  0  0  0  0  0
  1  2  1  0
  2  3  1  0
  3  4  1  0
  4  5  1  0
  5  6  3  0
  2  7  1  0
  7  8  1  0
  8  9  2  0
  8 10  1  0
 10 11  1  0
 11 12  2  0
 11 13  1  0
 13 14  1  0
 14 15  1  0
 15 16  1  0
 15 17  2  0
 14 18  2  0
 18 19  1  0
 19 20  2  0
 20 21  1  0
 21 22  2  0
 22 23  1  0
 23 24  1  0
 23 25  1  0
 22 26  1  0
 26 27  2  0
 27 13  1  0
 27 19  1  0
  1 28  1  0
  1 29  1  0
  1 30  1  0
  3 31  1  0
  3 32  1  0
  4 33  1  0
  4 34  1  0
  7 35  1  0
  7 36  1  0
 10 37  1  0
 16 38  1  0
 16 39  1  0
 18 40  1  0
 20 41  1  0
 21 42  1  0
 23 43  1  0
 26 44  1  0
M  END
>  <UniqueID>  (77) 
76

>  <SMILES>  (77) 
CN(CCC#N)CC(=O)NC(=O)n1c(C(N)=O)cc2ccc(C(F)F)cc21

>  <Energy>  (77) 
82.3340578878675

>  <Genealogy>  (77) 
CN(CCC#N)CC(=O)NC(=O)n1c(C(N)=O)cc2ccc(C(F)F)cc21 (3D coordinates assigned)
CN(CCC#N)CC(=O)NC(=O)n1c(C(N)=O)cc2ccc(C(F)F)cc21 (optimized conformer: 82.3340578878675 kcal/mol)

>  <smiles>  (77) 
CN(CCC#N)CC(=O)NC(=O)n1c(C(N)=O)cc2ccc(C(F)F)cc21

>  <score_type>  (77) 
oracle

>  <origin>  (77) 
adg

>  <m_score__min__energy>  (77) 
-6.96

>  <m_primary>  (77) 
energy

$$$$
77:0
     RDKit          3D

 34 35  0  0  0  0  0  0  0  0999 V2000
  140.2300  158.3290  136.6110 C   0  0  0  0  0  0  0  0  0  0  0  0
  140.7520  158.7960  135.2810 C   0  0  0  0  0  0  0  0  0  0  0  0
  141.7040  159.7480  135.2720 C   0  0  0  0  0  0  0  0  0  0  0  0
  142.3860  160.2920  134.0800 C   0  0  0  0  0  0  0  0  0  0  0  0
  141.7690  161.1320  133.3720 O   0  0  0  0  0  0  0  0  0  0  0  0
  143.7640  159.9980  133.7830 N   0  0  0  0  0  0  0  0  0  0  0  0
  144.8300  160.8480  133.8460 C   0  0  0  0  0  0  0  0  0  0  0  0
  144.7700  162.3020  134.1170 C   0  0  0  0  0  0  0  0  0  0  0  0
  143.8840  163.1270  133.3630 N   0  0  0  0  0  0  0  0  0  0  0  0
  145.4770  162.8240  135.0180 O   0  0  0  0  0  0  0  0  0  0  0  0
  146.0160  160.1650  133.5880 C   0  0  0  0  0  0  0  0  0  0  0  0
  145.6480  158.8570  133.3810 C   0  0  0  0  0  0  0  0  0  0  0  0
  146.4330  157.7390  133.1140 C   0  0  0  0  0  0  0  0  0  0  0  0
  145.7890  156.4970  132.9860 C   0  0  0  0  0  0  0  0  0  0  0  0
  144.3840  156.3960  133.1260 C   0  0  0  0  0  0  0  0  0  0  0  0
  143.7130  155.0580  133.0360 C   0  0  0  0  0  0  0  0  0  0  0  0
  144.2630  154.2030  133.9720 F   0  0  0  0  0  0  0  0  0  0  0  0
  143.6210  157.5490  133.4160 C   0  0  0  0  0  0  0  0  0  0  0  0
  144.2860  158.7770  133.5150 C   0  0  0  0  0  0  0  0  0  0  0  0
  140.0040  158.1250  133.7780 P   0  0  0  0  0  0  0  0  0  0  0  0
  140.1980  159.0810  132.6260 O   0  0  0  0  0  0  0  0  0  0  0  0
  140.7300  156.6500  133.3800 O   0  0  0  0  0  0  0  0  0  0  0  0
  138.3540  157.8530  134.0230 O   0  0  0  0  0  0  0  0  0  0  0  0
  140.7865  158.8269  137.4187 H   0  0  0  0  0  0  0  0  0  0  0  0
  139.1619  158.5785  136.6938 H   0  0  0  0  0  0  0  0  0  0  0  0
  140.3596  157.2398  136.6938 H   0  0  0  0  0  0  0  0  0  0  0  0
  142.0029  160.1607  136.2468 H   0  0  0  0  0  0  0  0  0  0  0  0
  142.9980  162.7410  132.9690 H   0  0  0  0  0  0  0  0  0  0  0  0
  147.0326  160.5839  133.5565 H   0  0  0  0  0  0  0  0  0  0  0  0
  147.5243  157.8253  133.0065 H   0  0  0  0  0  0  0  0  0  0  0  0
  146.3819  155.5948  132.7750 H   0  0  0  0  0  0  0  0  0  0  0  0
  142.6369  155.1735  133.2325 H   0  0  0  0  0  0  0  0  0  0  0  0
  143.8591  154.6416  132.0284 H   0  0  0  0  0  0  0  0  0  0  0  0
  142.5325  157.4836  133.5603 H   0  0  0  0  0  0  0  0  0  0  0  0
  1  2  1  0
  2  3  2  3
  3  4  1  0
  4  5  2  0
  4  6  1  0
  6  7  1  0
  7  8  1  0
  8  9  1  0
  8 10  2  0
  7 11  2  0
 11 12  1  0
 12 13  2  0
 13 14  1  0
 14 15  2  0
 15 16  1  0
 16 17  1  0
 15 18  1  0
 18 19  2  0
  2 20  1  0
 20 21  2  0
 20 22  1  0
 20 23  1  0
 19  6  1  0
 19 12  1  0
  1 24  1  0
  1 25  1  0
  1 26  1  0
  3 27  1  0
  9 28  1  0
 11 29  1  0
 13 30  1  0
 14 31  1  0
 16 32  1  0
 16 33  1  0
 18 34  1  0
M  CHG  3   9  -1  22  -1  23  -1
M  END
>  <UniqueID>  (78) 
77

>  <SMILES>  (78) 
CC(=CC(=O)n1c(C([NH-])=O)cc2ccc(CF)cc21)P(=O)([O-])[O-]

>  <Energy>  (78) 
72.86710407385365

>  <Genealogy>  (78) 
CC(=CC(=O)n1c(C([NH-])=O)cc2ccc(CF)cc21)P(=O)([O-])[O-] (protonated)
CC(=CC(=O)n1c(C([NH-])=O)cc2ccc(CF)cc21)P(=O)([O-])[O-] (3D coordinates assigned)
CC(=CC(=O)n1c(C([NH-])=O)cc2ccc(CF)cc21)P(=O)([O-])[O-] (optimized conformer: 72.86710407385365 kcal/mol)

>  <smiles>  (78) 
CC(=CC(=O)n1c(C(N)=O)cc2ccc(CF)cc21)P(=O)(O)O

>  <score_type>  (78) 
oracle

>  <origin>  (78) 
adg

>  <m_score__min__energy>  (78) 
-6.5499999999999998

>  <m_primary>  (78) 
energy

$$$$
78:0
     RDKit          3D

 38 39  0  0  0  0  0  0  0  0999 V2000
  139.7330  157.5050  135.4640 C   0  0  0  0  0  0  0  0  0  0  0  0
  139.5980  158.2350  134.1270 C   0  0  2  0  0  0  0  0  0  0  0  0
  139.5370  157.2560  132.9900 C   0  0  0  0  0  0  0  0  0  0  0  0
  139.1030  157.6100  131.8610 O   0  0  0  0  0  0  0  0  0  0  0  0
  139.9490  155.9420  133.1840 O   0  0  0  0  0  0  0  0  0  0  0  0
  140.9410  159.3980  133.8720 S   0  0  0  0  0  0  0  0  0  0  0  0
  141.3370  159.9840  135.1990 O   0  0  0  0  0  0  0  0  0  0  0  0
  140.4820  160.5050  132.9660 O   0  0  0  0  0  0  0  0  0  0  0  0
  142.3640  158.6070  133.1340 C   0  0  0  0  0  0  0  0  0  0  0  0
  143.4630  158.4450  134.1430 C   0  0  0  0  0  0  0  0  0  0  0  0
  143.2210  157.8550  135.2310 O   0  0  0  0  0  0  0  0  0  0  0  0
  144.8050  158.8610  133.8450 N   0  0  0  0  0  0  0  0  0  0  0  0
  145.2890  160.1310  133.7370 C   0  0  0  0  0  0  0  0  0  0  0  0
  144.5680  161.3660  134.1060 C   0  0  0  0  0  0  0  0  0  0  0  0
  143.2450  161.6080  133.6330 N   0  0  0  0  0  0  0  0  0  0  0  0
  145.1070  162.1980  134.8850 O   0  0  0  0  0  0  0  0  0  0  0  0
  146.6210  160.1120  133.3250 C   0  0  0  0  0  0  0  0  0  0  0  0
  146.9440  158.7790  133.1990 C   0  0  0  0  0  0  0  0  0  0  0  0
  148.1400  158.1800  132.8160 C   0  0  0  0  0  0  0  0  0  0  0  0
  148.1830  156.7760  132.7550 C   0  0  0  0  0  0  0  0  0  0  0  0
  147.0330  155.9990  133.0580 C   0  0  0  0  0  0  0  0  0  0  0  0
  147.0930  154.4930  133.0230 C   0  0  0  0  0  0  0  0  0  0  0  0
  147.2180  154.0120  134.3140 F   0  0  0  0  0  0  0  0  0  0  0  0
  148.1730  154.0590  132.2750 F   0  0  0  0  0  0  0  0  0  0  0  0
  145.9400  153.9760  132.4600 F   0  0  0  0  0  0  0  0  0  0  0  0
  145.8460  156.6490  133.4710 C   0  0  0  0  0  0  0  0  0  0  0  0
  145.8350  158.0460  133.5260 C   0  0  0  0  0  0  0  0  0  0  0  0
  139.6005  158.2216  136.2880 H   0  0  0  0  0  0  0  0  0  0  0  0
  138.9646  156.7209  135.5328 H   0  0  0  0  0  0  0  0  0  0  0  0
  140.7310  157.0475  135.5328 H   0  0  0  0  0  0  0  0  0  0  0  0
  138.6571  158.8040  134.1565 H   0  0  0  0  0  0  0  0  0  0  0  0
  142.0712  157.6161  132.7567 H   0  0  0  0  0  0  0  0  0  0  0  0
  142.7306  159.2361  132.3095 H   0  0  0  0  0  0  0  0  0  0  0  0
  142.5230  160.8550  133.6420 H   0  0  0  0  0  0  0  0  0  0  0  0
  147.2746  160.9772  133.1400 H   0  0  0  0  0  0  0  0  0  0  0  0
  149.0242  158.7859  132.5687 H   0  0  0  0  0  0  0  0  0  0  0  0
  149.1186  156.2730  132.4692 H   0  0  0  0  0  0  0  0  0  0  0  0
  144.9521  156.0684  133.7426 H   0  0  0  0  0  0  0  0  0  0  0  0
  1  2  1  0
  2  3  1  0
  3  4  2  0
  3  5  1  0
  2  6  1  0
  6  7  2  0
  6  8  2  0
  6  9  1  0
  9 10  1  0
 10 11  2  0
 10 12  1  0
 12 13  1  0
 13 14  1  0
 14 15  1  0
 14 16  2  0
 13 17  2  0
 17 18  1  0
 18 19  2  0
 19 20  1  0
 20 21  2  0
 21 22  1  0
 22 23  1  0
 22 24  1  0
 22 25  1  0
 21 26  1  0
 26 27  2  0
 27 12  1  0
 27 18  1  0
  1 28  1  0
  1 29  1  0
  1 30  1  0
  2 31  1  1
  9 32  1  0
  9 33  1  0
 15 34  1  0
 17 35  1  0
 19 36  1  0
 20 37  1  0
 26 38  1  0
M  CHG  2   5  -1  15  -1
M  END
>  <UniqueID>  (79) 
78

>  <SMILES>  (79) 
C[C@H](C(=O)[O-])S(=O)(=O)CC(=O)n1c(C([NH-])=O)cc2ccc(C(F)(F)F)cc21

>  <Energy>  (79) 
66.1628083878532

>  <Genealogy>  (79) 
CC(C(=O)[O-])S(=O)(=O)CC(=O)n1c(C([NH-])=O)cc2ccc(C(F)(F)F)cc21 (protonated)
C[C@H](C(=O)[O-])S(=O)(=O)CC(=O)n1c(C([NH-])=O)cc2ccc(C(F)(F)F)cc21 (chirality)
C[C@H](C(=O)[O-])S(=O)(=O)CC(=O)n1c(C([NH-])=O)cc2ccc(C(F)(F)F)cc21 (3D coordinates assigned)
C[C@H](C(=O)[O-])S(=O)(=O)CC(=O)n1c(C([NH-])=O)cc2ccc(C(F)(F)F)cc21 (optimized conformer: 66.1628083878532 kcal/mol)

>  <smiles>  (79) 
CC(C(=O)O)S(=O)(=O)CC(=O)n1c(C(N)=O)cc2ccc(C(F)(F)F)cc21

>  <score_type>  (79) 
oracle

>  <origin>  (79) 
adg

>  <m_score__min__energy>  (79) 
-6.7300000000000004

>  <m_primary>  (79) 
energy

$$$$
79:0
     RDKit          3D

 42 43  0  0  0  0  0  0  0  0999 V2000
  142.0510  150.7530  133.3790 C   0  0  0  0  0  0  0  0  0  0  0  0
  141.0690  151.7030  132.8440 N   0  0  0  0  0  0  0  0  0  0  0  0
  139.8430  151.1720  132.2300 C   0  0  0  0  0  0  0  0  0  0  0  0
  139.8420  149.6370  132.2750 C   0  0  0  0  0  0  0  0  0  0  0  0
  140.1830  149.0160  130.9140 C   0  0  0  0  0  0  0  0  0  0  0  0
  139.0280  148.2460  130.3510 C   0  0  0  0  0  0  0  0  0  0  0  0
  138.0200  148.8530  129.9030 O   0  0  0  0  0  0  0  0  0  0  0  0
  139.0790  146.8590  130.2900 O   0  0  0  0  0  0  0  0  0  0  0  0
  141.3450  153.1220  132.7710 C   0  0  0  0  0  0  0  0  0  0  0  0
  142.4500  153.5090  132.3020 O   0  0  0  0  0  0  0  0  0  0  0  0
  140.3820  154.1590  133.2210 C   0  0  0  0  0  0  0  0  0  0  0  0
  139.1520  154.0550  132.9740 O   0  0  0  0  0  0  0  0  0  0  0  0
  140.8450  155.2910  133.9710 N   0  0  0  0  0  0  0  0  0  0  0  0
  141.6180  155.3000  135.0940 C   0  0  0  0  0  0  0  0  0  0  0  0
  142.2420  154.1180  135.7250 C   0  0  0  0  0  0  0  0  0  0  0  0
  143.4310  153.5430  135.1910 N   0  0  0  0  0  0  0  0  0  0  0  0
  141.7340  153.6270  136.7680 O   0  0  0  0  0  0  0  0  0  0  0  0
  141.7970  156.6060  135.5470 C   0  0  0  0  0  0  0  0  0  0  0  0
  141.1150  157.4010  134.6530 C   0  0  0  0  0  0  0  0  0  0  0  0
  140.9440  158.7810  134.6250 C   0  0  0  0  0  0  0  0  0  0  0  0
  140.1670  159.3290  133.5880 C   0  0  0  0  0  0  0  0  0  0  0  0
  139.5900  158.4950  132.5940 C   0  0  0  0  0  0  0  0  0  0  0  0
  138.7140  159.0880  131.5210 C   0  0  0  0  0  0  0  0  0  0  0  0
  139.1020  158.6390  130.2700 F   0  0  0  0  0  0  0  0  0  0  0  0
  137.3900  158.7320  131.7170 F   0  0  0  0  0  0  0  0  0  0  0  0
  138.8200  160.4650  131.5580 F   0  0  0  0  0  0  0  0  0  0  0  0
  139.7690  157.0940  132.6720 C   0  0  0  0  0  0  0  0  0  0  0  0
  140.5530  156.5810  133.7100 C   0  0  0  0  0  0  0  0  0  0  0  0
  142.0246  150.7785  134.4784 H   0  0  0  0  0  0  0  0  0  0  0  0
  141.8078  149.7386  133.0298 H   0  0  0  0  0  0  0  0  0  0  0  0
  143.0568  151.0297  133.0298 H   0  0  0  0  0  0  0  0  0  0  0  0
  138.9690  151.5511  132.7799 H   0  0  0  0  0  0  0  0  0  0  0  0
  139.8002  151.4978  131.1802 H   0  0  0  0  0  0  0  0  0  0  0  0
  140.5868  149.3039  133.0127 H   0  0  0  0  0  0  0  0  0  0  0  0
  138.8293  149.3084  132.5514 H   0  0  0  0  0  0  0  0  0  0  0  0
  140.4513  149.8198  130.2126 H   0  0  0  0  0  0  0  0  0  0  0  0
  141.0227  148.3197  131.0557 H   0  0  0  0  0  0  0  0  0  0  0  0
  143.5210  153.3470  134.1690 H   0  0  0  0  0  0  0  0  0  0  0  0
  142.3633  156.9326  136.4316 H   0  0  0  0  0  0  0  0  0  0  0  0
  141.4023  159.4245  135.3904 H   0  0  0  0  0  0  0  0  0  0  0  0
  140.0046  160.4162  133.5467 H   0  0  0  0  0  0  0  0  0  0  0  0
  139.3029  156.4245  131.9341 H   0  0  0  0  0  0  0  0  0  0  0  0
  1  2  1  0
  2  3  1  0
  3  4  1  0
  4  5  1  0
  5  6  1  0
  6  7  2  0
  6  8  1  0
  2  9  1  0
  9 10  2  0
  9 11  1  0
 11 12  2  0
 11 13  1  0
 13 14  1  0
 14 15  1  0
 15 16  1  0
 15 17  2  0
 14 18  2  0
 18 19  1  0
 19 20  2  0
 20 21  1  0
 21 22  2  0
 22 23  1  0
 23 24  1  0
 23 25  1  0
 23 26  1  0
 22 27  1  0
 27 28  2  0
 28 13  1  0
 28 19  1  0
  1 29  1  0
  1 30  1  0
  1 31  1  0
  3 32  1  0
  3 33  1  0
  4 34  1  0
  4 35  1  0
  5 36  1  0
  5 37  1  0
 16 38  1  0
 18 39  1  0
 20 40  1  0
 21 41  1  0
 27 42  1  0
M  CHG  2   8  -1  16  -1
M  END
>  <UniqueID>  (80) 
79

>  <SMILES>  (80) 
CN(CCCC(=O)[O-])C(=O)C(=O)n1c(C([NH-])=O)cc2ccc(C(F)(F)F)cc21

>  <Energy>  (80) 
78.97564656798039

>  <Genealogy>  (80) 
CN(CCCC(=O)[O-])C(=O)C(=O)n1c(C([NH-])=O)cc2ccc(C(F)(F)F)cc21 (protonated)
CN(CCCC(=O)[O-])C(=O)C(=O)n1c(C([NH-])=O)cc2ccc(C(F)(F)F)cc21 (3D coordinates assigned)
CN(CCCC(=O)[O-])C(=O)C(=O)n1c(C([NH-])=O)cc2ccc(C(F)(F)F)cc21 (optimized conformer: 78.97564656798039 kcal/mol)

>  <smiles>  (80) 
CN(CCCC(=O)O)C(=O)C(=O)n1c(C(N)=O)cc2ccc(C(F)(F)F)cc21

>  <score_type>  (80) 
oracle

>  <origin>  (80) 
adg

>  <m_score__min__energy>  (80) 
-6.8600000000000003

>  <m_primary>  (80) 
energy

$$$$
80:0
     RDKit          3D

 37 38  0  0  0  0  0  0  0  0999 V2000
  141.5720  158.5950  134.4100 C   0  0  0  0  0  0  0  0  0  0  0  0
  142.9520  159.0600  134.0530 C   0  0  0  0  0  0  0  0  0  0  0  0
  143.2580  160.4420  134.0590 C   0  0  0  0  0  0  0  0  0  0  0  0
  144.5530  160.8880  133.7470 C   0  0  0  0  0  0  0  0  0  0  0  0
  145.5210  159.9310  133.4570 C   0  0  0  0  0  0  0  0  0  0  0  0
  146.8360  160.0920  133.0910 C   0  0  0  0  0  0  0  0  0  0  0  0
  147.3290  158.8040  132.9130 C   0  0  0  0  0  0  0  0  0  0  0  0
  148.7330  158.5190  132.5590 C   0  0  0  0  0  0  0  0  0  0  0  0
  149.0930  157.3180  131.8760 N   0  0  0  0  0  0  0  0  0  0  0  0
  149.6370  159.3200  132.9170 O   0  0  0  0  0  0  0  0  0  0  0  0
  146.3560  157.8750  133.1490 N   0  0  0  0  0  0  0  0  0  0  0  0
  146.4440  156.4510  132.9610 C   0  0  0  0  0  0  0  0  0  0  0  0
  146.7840  155.9860  131.8390 O   0  0  0  0  0  0  0  0  0  0  0  0
  146.1320  155.5860  134.0180 O   0  0  0  0  0  0  0  0  0  0  0  0
  147.0690  154.7000  134.6310 C   0  0  0  0  0  0  0  0  0  0  0  0
  147.4200  153.5390  133.6920 C   0  0  1  0  0  0  0  0  0  0  0  0
  146.4970  153.5140  132.6340 O   0  0  0  0  0  0  0  0  0  0  0  0
  148.8510  153.6470  133.1380 C   0  0  0  0  0  0  0  0  0  0  0  0
  148.9020  154.4890  132.0170 O   0  0  0  0  0  0  0  0  0  0  0  0
  145.2520  158.5850  133.4810 C   0  0  0  0  0  0  0  0  0  0  0  0
  143.9620  158.1160  133.7670 C   0  0  0  0  0  0  0  0  0  0  0  0
  141.4685  158.5601  135.5046 H   0  0  0  0  0  0  0  0  0  0  0  0
  140.8307  159.2930  133.9937 H   0  0  0  0  0  0  0  0  0  0  0  0
  141.4043  157.5907  133.9937 H   0  0  0  0  0  0  0  0  0  0  0  0
  142.4752  161.1729  134.3101 H   0  0  0  0  0  0  0  0  0  0  0  0
  144.7946  161.9610  133.7323 H   0  0  0  0  0  0  0  0  0  0  0  0
  147.3823  161.0385  132.9656 H   0  0  0  0  0  0  0  0  0  0  0  0
  148.3940  156.5590  131.7230 H   0  0  0  0  0  0  0  0  0  0  0  0
  150.0850  157.1500  131.5970 H   0  0  0  0  0  0  0  0  0  0  0  0
  147.9860  155.2571  134.8732 H   0  0  0  0  0  0  0  0  0  0  0  0
  146.6168  154.2880  135.5452 H   0  0  0  0  0  0  0  0  0  0  0  0
  147.3691  152.6049  134.2707 H   0  0  0  0  0  0  0  0  0  0  0  0
  146.6760  154.3150  132.0760 H   0  0  0  0  0  0  0  0  0  0  0  0
  149.5086  154.0527  133.9209 H   0  0  0  0  0  0  0  0  0  0  0  0
  149.1817  152.6431  132.8332 H   0  0  0  0  0  0  0  0  0  0  0  0
  148.0840  154.3090  131.4870 H   0  0  0  0  0  0  0  0  0  0  0  0
  143.7422  157.0382  133.7685 H   0  0  0  0  0  0  0  0  0  0  0  0
  1  2  1  0
  2  3  2  0
  3  4  1  0
  4  5  2  0
  5  6  1  0
  6  7  2  0
  7  8  1  0
  8  9  1  0
  8 10  2  0
  7 11  1  0
 11 12  1  0
 12 13  2  0
 12 14  1  0
 14 15  1  0
 15 16  1  0
 16 17  1  0
 16 18  1  0
 18 19  1  0
 11 20  1  0
 20 21  2  0
 21  2  1  0
 20  5  1  0
  1 22  1  0
  1 23  1  0
  1 24  1  0
  3 25  1  0
  4 26  1  0
  6 27  1  0
  9 28  1  0
  9 29  1  0
 15 30  1  0
 15 31  1  0
 16 32  1  1
 17 33  1  0
 18 34  1  0
 18 35  1  0
 19 36  1  0
 21 37  1  0
M  END
>  <UniqueID>  (81) 
80

>  <SMILES>  (81) 
Cc1ccc2cc(C(N)=O)n(C(=O)OC[C@@H](O)CO)c2c1

>  <Energy>  (81) 
72.8365351905407

>  <Genealogy>  (81) 
Cc1ccc2cc(C(N)=O)n(C(=O)OC[C@@H](O)CO)c2c1 (chirality)
Cc1ccc2cc(C(N)=O)n(C(=O)OC[C@@H](O)CO)c2c1 (3D coordinates assigned)
Cc1ccc2cc(C(N)=O)n(C(=O)OC[C@@H](O)CO)c2c1 (optimized conformer: 72.8365351905407 kcal/mol)

>  <smiles>  (81) 
Cc1ccc2cc(C(N)=O)n(C(=O)OCC(O)CO)c2c1

>  <score_type>  (81) 
oracle

>  <origin>  (81) 
adg

>  <m_score__min__energy>  (81) 
-5.71

>  <m_primary>  (81) 
energy

$$$$
81:0
     RDKit          3D

 40 41  0  0  0  0  0  0  0  0999 V2000
  147.1890  155.1410  133.9210 C   0  0  0  0  0  0  0  0  0  0  0  0
  146.2980  156.3360  133.7910 C   0  0  0  0  0  0  0  0  0  0  0  0
  146.8680  157.5860  133.4440 C   0  0  0  0  0  0  0  0  0  0  0  0
  146.0670  158.7320  133.3290 C   0  0  0  0  0  0  0  0  0  0  0  0
  144.7060  158.5870  133.5900 C   0  0  0  0  0  0  0  0  0  0  0  0
  143.7320  159.5390  133.5180 C   0  0  0  0  0  0  0  0  0  0  0  0
  142.5530  158.8560  133.8350 C   0  0  0  0  0  0  0  0  0  0  0  0
  141.2470  159.5560  133.6630 C   0  0  0  0  0  0  0  0  0  0  0  0
  140.7220  159.8180  132.3720 N   0  0  0  0  0  0  0  0  0  0  0  0
  140.6240  159.9870  134.6690 O   0  0  0  0  0  0  0  0  0  0  0  0
  142.7790  157.5420  134.1280 N   0  0  0  0  0  0  0  0  0  0  0  0
  141.8600  156.4780  134.5740 C   0  0  0  0  0  0  0  0  0  0  0  0
  141.9450  156.1160  135.7750 O   0  0  0  0  0  0  0  0  0  0  0  0
  140.8510  155.8820  133.6960 N   0  0  0  0  0  0  0  0  0  0  0  0
  139.5060  156.9430  133.0640 P   0  0  0  0  0  0  0  0  0  0  0  0
  140.7080  154.4960  133.1860 C   0  0  0  0  0  0  0  0  0  0  0  0
  139.5770  154.2120  132.6870 O   0  0  0  0  0  0  0  0  0  0  0  0
  141.6980  153.3950  133.1910 N   0  0  0  0  0  0  0  0  0  0  0  0
  142.9450  153.6870  132.4520 C   0  0  0  0  0  0  0  0  0  0  0  0
  141.6140  152.0260  133.7900 C   0  0  0  0  0  0  0  0  0  0  0  0
  141.6470  152.0700  135.2920 C   0  0  0  0  0  0  0  0  0  0  0  0
  142.2470  152.9860  135.8960 O   0  0  0  0  0  0  0  0  0  0  0  0
  140.9830  151.1050  136.0310 O   0  0  0  0  0  0  0  0  0  0  0  0
  144.1210  157.3890  133.9600 C   0  0  0  0  0  0  0  0  0  0  0  0
  144.9170  156.2370  134.0690 C   0  0  0  0  0  0  0  0  0  0  0  0
  147.3535  154.9204  134.9860 H   0  0  0  0  0  0  0  0  0  0  0  0
  146.7142  154.2752  133.4363 H   0  0  0  0  0  0  0  0  0  0  0  0
  148.1543  155.3489  133.4363 H   0  0  0  0  0  0  0  0  0  0  0  0
  147.9505  157.6586  133.2628 H   0  0  0  0  0  0  0  0  0  0  0  0
  146.4955  159.7044  133.0447 H   0  0  0  0  0  0  0  0  0  0  0  0
  143.8475  160.6038  133.2672 H   0  0  0  0  0  0  0  0  0  0  0  0
  141.3440  159.7140  131.5350 H   0  0  0  0  0  0  0  0  0  0  0  0
  139.6730  158.2780  133.5940 H   0  0  0  0  0  0  0  0  0  0  0  0
  138.3620  156.0280  132.9670 H   0  0  0  0  0  0  0  0  0  0  0  0
  143.7589  153.8776  133.1670 H   0  0  0  0  0  0  0  0  0  0  0  0
  143.2067  152.8258  131.8196 H   0  0  0  0  0  0  0  0  0  0  0  0
  142.7971  154.5748  131.8196 H   0  0  0  0  0  0  0  0  0  0  0  0
  140.6740  151.5539  133.4684 H   0  0  0  0  0  0  0  0  0  0  0  0
  142.4848  151.4487  133.4460 H   0  0  0  0  0  0  0  0  0  0  0  0
  144.4729  155.2753  134.3655 H   0  0  0  0  0  0  0  0  0  0  0  0
  1  2  1  0
  2  3  2  0
  3  4  1  0
  4  5  2  0
  5  6  1  0
  6  7  2  0
  7  8  1  0
  8  9  1  0
  8 10  2  0
  7 11  1  0
 11 12  1  0
 12 13  2  0
 12 14  1  0
 14 15  1  0
 14 16  1  0
 16 17  2  0
 16 18  1  0
 18 19  1  0
 18 20  1  0
 20 21  1  0
 21 22  2  0
 21 23  1  0
 11 24  1  0
 24 25  2  0
 25  2  1  0
 24  5  1  0
  1 26  1  0
  1 27  1  0
  1 28  1  0
  3 29  1  0
  4 30  1  0
  6 31  1  0
  9 32  1  0
 15 33  1  0
 15 34  1  0
 19 35  1  0
 19 36  1  0
 19 37  1  0
 20 38  1  0
 20 39  1  0
 25 40  1  0
M  CHG  2   9  -1  23  -1
M  END
>  <UniqueID>  (82) 
81

>  <SMILES>  (82) 
Cc1ccc2cc(C([NH-])=O)n(C(=O)N([P@H2])C(=O)N(C)CC(=O)[O-])c2c1

>  <Energy>  (82) 
150.04558189156452

>  <Genealogy>  (82) 
Cc1ccc2cc(C([NH-])=O)n(C(=O)N(P)C(=O)N(C)CC(=O)[O-])c2c1 (protonated)
Cc1ccc2cc(C([NH-])=O)n(C(=O)N([P@H2])C(=O)N(C)CC(=O)[O-])c2c1 (chirality)
Cc1ccc2cc(C([NH-])=O)n(C(=O)N([P@H2])C(=O)N(C)CC(=O)[O-])c2c1 (3D coordinates assigned)
Cc1ccc2cc(C([NH-])=O)n(C(=O)N([P@H2])C(=O)N(C)CC(=O)[O-])c2c1 (optimized conformer: 150.04558189156452 kcal/mol)

>  <smiles>  (82) 
Cc1ccc2cc(C(N)=O)n(C(=O)N(P)C(=O)N(C)CC(=O)O)c2c1

>  <score_type>  (82) 
oracle

>  <origin>  (82) 
adg

>  <m_score__min__energy>  (82) 
-7.5700000000000003

>  <m_primary>  (82) 
energy

$$$$
82:0
     RDKit          3D

 44 46  0  0  0  0  0  0  0  0999 V2000
  148.4350  155.3070  132.3500 H   0  0  0  0  0  0  0  0  0  0  0  0
  149.3490  154.9230  132.2940 O   0  0  0  0  0  0  0  0  0  0  0  0
  149.2130  153.5580  132.5710 C   0  0  0  0  0  0  0  0  0  0  0  0
  150.2041  153.1232  132.7677 H   0  0  0  0  0  0  0  0  0  0  0  0
  148.7557  153.0524  131.7077 H   0  0  0  0  0  0  0  0  0  0  0  0
  148.3240  153.3740  133.7980 C   0  0  0  0  0  0  0  0  0  0  0  0
  148.8565  152.7597  134.5390 H   0  0  0  0  0  0  0  0  0  0  0  0
  147.3927  152.8795  133.4847 H   0  0  0  0  0  0  0  0  0  0  0  0
  147.9950  154.6320  134.3850 O   0  0  0  0  0  0  0  0  0  0  0  0
  146.7660  154.8640  135.0100 C   0  0  0  0  0  0  0  0  0  0  0  0
  145.8560  155.6960  134.4800 C   0  0  0  0  0  0  0  0  0  0  0  0
  144.8949  155.8049  135.0039 H   0  0  0  0  0  0  0  0  0  0  0  0
  146.0570  156.4770  133.2390 C   0  0  0  0  0  0  0  0  0  0  0  0
  146.3500  155.9070  132.1530 O   0  0  0  0  0  0  0  0  0  0  0  0
  145.8970  157.9040  133.2590 N   0  0  0  0  0  0  0  0  0  0  0  0
  146.8830  158.8420  133.2080 C   0  0  0  0  0  0  0  0  0  0  0  0
  148.3190  158.5750  132.9810 C   0  0  0  0  0  0  0  0  0  0  0  0
  149.0770  159.5230  132.6470 O   0  0  0  0  0  0  0  0  0  0  0  0
  148.8550  157.2550  133.0810 N   0  0  0  0  0  0  0  0  0  0  0  0
  148.2310  156.4210  133.1570 H   0  0  0  0  0  0  0  0  0  0  0  0
  149.8810  157.0990  132.9780 H   0  0  0  0  0  0  0  0  0  0  0  0
  146.3540  160.1180  133.3890 C   0  0  0  0  0  0  0  0  0  0  0  0
  146.9015  161.0720  133.4014 H   0  0  0  0  0  0  0  0  0  0  0  0
  145.0000  159.9300  133.5490 C   0  0  0  0  0  0  0  0  0  0  0  0
  143.9910  160.8560  133.7890 C   0  0  0  0  0  0  0  0  0  0  0  0
  144.2102  161.9328  133.8387 H   0  0  0  0  0  0  0  0  0  0  0  0
  142.6840  160.3750  133.9660 C   0  0  0  0  0  0  0  0  0  0  0  0
  141.8652  161.0874  134.1449 H   0  0  0  0  0  0  0  0  0  0  0  0
  142.4020  158.9870  133.9180 C   0  0  0  0  0  0  0  0  0  0  0  0
  140.9610  158.5550  134.1360 C   0  0  0  0  0  0  0  0  0  0  0  0
  140.6351  158.9300  133.1546 H   0  0  0  0  0  0  0  0  0  0  0  0
  140.4150  158.6350  135.5550 C   0  0  0  0  0  0  0  0  0  0  0  0
  141.0465  159.0265  136.3661 H   0  0  0  0  0  0  0  0  0  0  0  0
  139.5305  159.0909  136.0237 H   0  0  0  0  0  0  0  0  0  0  0  0
  140.7270  157.2790  134.9330 C   0  0  0  0  0  0  0  0  0  0  0  0
  141.5837  156.6917  135.2951 H   0  0  0  0  0  0  0  0  0  0  0  0
  140.1610  156.3506  134.7667 H   0  0  0  0  0  0  0  0  0  0  0  0
  143.4630  158.0740  133.6790 C   0  0  0  0  0  0  0  0  0  0  0  0
  143.2775  156.9900  133.6546 H   0  0  0  0  0  0  0  0  0  0  0  0
  144.7510  158.5850  133.4750 C   0  0  0  0  0  0  0  0  0  0  0  0
  146.4690  154.1700  136.3050 C   0  0  0  0  0  0  0  0  0  0  0  0
  146.7489  154.8239  137.1441 H   0  0  0  0  0  0  0  0  0  0  0  0
  145.3944  153.9418  136.3606 H   0  0  0  0  0  0  0  0  0  0  0  0
  147.0458  153.2350  136.3606 H   0  0  0  0  0  0  0  0  0  0  0  0
  1  2  1  0
  2  3  1  0
  3  4  1  0
  3  5  1  0
  3  6  1  0
  6  7  1  0
  6  8  1  0
  6  9  1  0
  9 10  1  0
 10 11  2  0
 11 12  1  0
 11 13  1  0
 13 14  2  0
 13 15  1  0
 15 16  1  0
 16 17  1  0
 17 18  2  0
 17 19  1  0
 19 20  1  0
 19 21  1  0
 16 22  2  0
 22 23  1  0
 22 24  1  0
 24 25  2  0
 25 26  1  0
 25 27  1  0
 27 28  1  0
 27 29  2  0
 29 30  1  0
 30 31  1  0
 30 32  1  0
 32 33  1  0
 32 34  1  0
 32 35  1  0
 35 36  1  0
 35 37  1  0
 29 38  1  0
 38 39  1  0
 38 40  2  0
 10 41  1  0
 41 42  1  0
 41 43  1  0
 41 44  1  0
 40 15  1  0
 40 24  1  0
 35 30  1  0
M  END
>  <UniqueID>  (83) 
82

>  <SMILES>  (83) 
C/C(=C/C(=O)n1c(C(N)=O)cc2ccc(C3CC3)cc21)OCCO

>  <Energy>  (83) 
355.0961582150445

>  <Genealogy>  (83) 
C/C(=C/C(=O)n1c(C(N)=O)cc2ccc(C3CC3)cc21)OCCO (cis-trans isomerization)
C/C(=C/C(=O)n1c(C(N)=O)cc2ccc(C3CC3)cc21)OCCO (3D coordinates assigned)
C/C(=C/C(=O)n1c(C(N)=O)cc2ccc(C3CC3)cc21)OCCO (nonaromatic ring conformer: 355.0961582150445 kcal/mol)

>  <smiles>  (83) 
CC(=CC(=O)n1c(C(N)=O)cc2ccc(C3CC3)cc21)OCCO

>  <score_type>  (83) 
oracle

>  <origin>  (83) 
adg

>  <m_score__min__energy>  (83) 
-6.9400000000000004

>  <m_primary>  (83) 
energy

$$$$
83:0
     RDKit          3D

 33 34  0  0  0  0  0  0  0  0999 V2000
  148.8620  156.5330  132.6390 C   0  0  0  0  0  0  0  0  0  0  0  0
  147.9590  157.6950  132.9240 C   0  0  0  0  0  0  0  0  0  0  0  0
  148.4870  159.0080  132.9750 C   0  0  0  0  0  0  0  0  0  0  0  0
  147.6480  160.1080  133.2180 C   0  0  0  0  0  0  0  0  0  0  0  0
  146.2870  159.8650  133.3830 C   0  0  0  0  0  0  0  0  0  0  0  0
  145.2590  160.7390  133.6530 C   0  0  0  0  0  0  0  0  0  0  0  0
  144.1130  159.9520  133.7220 C   0  0  0  0  0  0  0  0  0  0  0  0
  142.7570  160.5060  133.9140 C   0  0  0  0  0  0  0  0  0  0  0  0
  141.7070  159.7050  134.4510 N   0  0  0  0  0  0  0  0  0  0  0  0
  142.5090  161.6860  133.5530 O   0  0  0  0  0  0  0  0  0  0  0  0
  144.4200  158.6390  133.5100 N   0  0  0  0  0  0  0  0  0  0  0  0
  143.5390  157.5090  133.6020 C   0  0  0  0  0  0  0  0  0  0  0  0
  143.8200  156.5510  134.3720 O   0  0  0  0  0  0  0  0  0  0  0  0
  142.3580  157.4880  132.8540 O   0  0  0  0  0  0  0  0  0  0  0  0
  141.1390  156.9400  133.3490 C   0  0  0  0  0  0  0  0  0  0  0  0
  140.1390  157.0140  132.3610 O   0  0  0  0  0  0  0  0  0  0  0  0
  139.5300  158.6070  132.3070 P   0  0  2  0  0  0  0  0  0  0  0  0
  139.0350  158.9890  133.6820 O   0  0  0  0  0  0  0  0  0  0  0  0
  138.2440  158.7100  131.2110 O   0  0  0  0  0  0  0  0  0  0  0  0
  140.7560  159.6790  131.8430 O   0  0  0  0  0  0  0  0  0  0  0  0
  145.7550  158.6040  133.3030 C   0  0  0  0  0  0  0  0  0  0  0  0
  146.5720  157.4880  133.0820 C   0  0  0  0  0  0  0  0  0  0  0  0
  149.2039  156.0931  133.5875 H   0  0  0  0  0  0  0  0  0  0  0  0
  148.3132  155.7755  132.0602 H   0  0  0  0  0  0  0  0  0  0  0  0
  149.7316  156.8777  132.0602 H   0  0  0  0  0  0  0  0  0  0  0  0
  149.5646  159.1680  132.8229 H   0  0  0  0  0  0  0  0  0  0  0  0
  148.0533  161.1290  133.2761 H   0  0  0  0  0  0  0  0  0  0  0  0
  145.3282  161.8287  133.7861 H   0  0  0  0  0  0  0  0  0  0  0  0
  141.1890  159.0250  133.8510 H   0  0  0  0  0  0  0  0  0  0  0  0
  141.2993  155.8877  133.6263 H   0  0  0  0  0  0  0  0  0  0  0  0
  140.8176  157.5145  134.2303 H   0  0  0  0  0  0  0  0  0  0  0  0
  141.5610  159.3680  132.3280 H   0  0  0  0  0  0  0  0  0  0  0  0
  146.1435  156.4761  133.0329 H   0  0  0  0  0  0  0  0  0  0  0  0
  1  2  1  0
  2  3  2  0
  3  4  1  0
  4  5  2  0
  5  6  1  0
  6  7  2  0
  7  8  1  0
  8  9  1  0
  8 10  2  0
  7 11  1  0
 11 12  1  0
 12 13  2  0
 12 14  1  0
 14 15  1  0
 15 16  1  0
 16 17  1  0
 17 18  2  0
 17 19  1  6
 17 20  1  0
 11 21  1  0
 21 22  2  0
 22  2  1  0
 21  5  1  0
  1 23  1  0
  1 24  1  0
  1 25  1  0
  3 26  1  0
  4 27  1  0
  6 28  1  0
  9 29  1  0
 15 30  1  0
 15 31  1  0
 20 32  1  0
 22 33  1  0
M  CHG  2   9  -1  19  -1
M  END
>  <UniqueID>  (84) 
83

>  <SMILES>  (84) 
Cc1ccc2cc(C([NH-])=O)n(C(=O)OCO[P@](=O)([O-])O)c2c1

>  <Energy>  (84) 
68.34828231769367

>  <Genealogy>  (84) 
Cc1ccc2cc(C([NH-])=O)n(C(=O)OCOP(=O)([O-])O)c2c1 (protonated)
Cc1ccc2cc(C([NH-])=O)n(C(=O)OCO[P@](=O)([O-])O)c2c1 (chirality)
Cc1ccc2cc(C([NH-])=O)n(C(=O)OCO[P@](=O)([O-])O)c2c1 (3D coordinates assigned)
Cc1ccc2cc(C([NH-])=O)n(C(=O)OCO[P@](=O)([O-])O)c2c1 (optimized conformer: 68.34828231769367 kcal/mol)

>  <smiles>  (84) 
Cc1ccc2cc(C(N)=O)n(C(=O)OCOP(=O)(O)O)c2c1

>  <score_type>  (84) 
oracle

>  <origin>  (84) 
adg

>  <m_score__min__energy>  (84) 
-5.5

>  <m_primary>  (84) 
energy

$$$$
84:0
     RDKit          3D

 44 46  0  0  0  0  0  0  0  0999 V2000
  144.9250  154.5760  132.0530 C   0  0  0  0  0  0  0  0  0  0  0  0
  145.1770  154.2010  133.4580 N   0  0  1  0  0  0  0  0  0  0  0  0
  145.7120  155.3420  134.1730 C   0  0  0  0  0  0  0  0  0  0  0  0
  145.1410  155.7810  135.2080 O   0  0  0  0  0  0  0  0  0  0  0  0
  146.8200  156.0740  133.6280 N   0  0  0  0  0  0  0  0  0  0  0  0
  147.9950  155.5860  133.1440 C   0  0  0  0  0  0  0  0  0  0  0  0
  148.4310  154.1770  133.1980 C   0  0  0  0  0  0  0  0  0  0  0  0
  147.7700  153.2610  134.0680 N   0  0  0  0  0  0  0  0  0  0  0  0
  149.3680  153.7650  132.4650 O   0  0  0  0  0  0  0  0  0  0  0  0
  148.7780  156.6220  132.6350 C   0  0  0  0  0  0  0  0  0  0  0  0
  148.0390  157.7680  132.8300 C   0  0  0  0  0  0  0  0  0  0  0  0
  148.3270  159.0900  132.5040 C   0  0  0  0  0  0  0  0  0  0  0  0
  147.3620  160.0670  132.8060 C   0  0  0  0  0  0  0  0  0  0  0  0
  146.1360  159.7080  133.4200 C   0  0  0  0  0  0  0  0  0  0  0  0
  145.1160  160.7670  133.7240 C   0  0  0  0  0  0  0  0  0  0  0  0
  144.0720  160.2160  134.4450 F   0  0  0  0  0  0  0  0  0  0  0  0
  145.6990  161.7780  134.4650 F   0  0  0  0  0  0  0  0  0  0  0  0
  145.8800  158.3550  133.7350 C   0  0  0  0  0  0  0  0  0  0  0  0
  146.8630  157.4080  133.4320 C   0  0  0  0  0  0  0  0  0  0  0  0
  144.0100  153.5840  134.1610 C   0  0  2  0  0  0  0  0  0  0  0  0
  143.4380  152.3750  133.3860 C   0  0  0  0  0  0  0  0  0  0  0  0
  142.0790  152.8020  132.8430 C   0  0  0  0  0  0  0  0  0  0  0  0
  141.7580  154.0480  133.5140 N   0  0  0  0  0  0  0  0  0  0  0  0
  140.5080  154.7320  133.3490 C   0  0  0  0  0  0  0  0  0  0  0  0
  139.4810  154.1000  132.9850 O   0  0  0  0  0  0  0  0  0  0  0  0
  140.4210  156.0980  133.5870 O   0  0  0  0  0  0  0  0  0  0  0  0
  142.8130  154.5310  134.3850 C   0  0  0  0  0  0  0  0  0  0  0  0
  144.3117  155.4886  132.0214 H   0  0  0  0  0  0  0  0  0  0  0  0
  145.8832  154.7604  131.5452 H   0  0  0  0  0  0  0  0  0  0  0  0
  144.3923  153.7585  131.5452 H   0  0  0  0  0  0  0  0  0  0  0  0
  145.9380  153.4820  133.4380 H   0  0  0  0  0  0  0  0  0  0  0  0
  147.0320  152.6160  133.7080 H   0  0  0  0  0  0  0  0  0  0  0  0
  149.7741  156.5411  132.1754 H   0  0  0  0  0  0  0  0  0  0  0  0
  149.2793  159.3619  132.0253 H   0  0  0  0  0  0  0  0  0  0  0  0
  147.5607  161.1213  132.5631 H   0  0  0  0  0  0  0  0  0  0  0  0
  144.7330  161.1788  132.7786 H   0  0  0  0  0  0  0  0  0  0  0  0
  144.9325  158.0544  134.2061 H   0  0  0  0  0  0  0  0  0  0  0  0
  144.4398  153.2969  135.1320 H   0  0  0  0  0  0  0  0  0  0  0  0
  144.1089  152.1048  132.5572 H   0  0  0  0  0  0  0  0  0  0  0  0
  143.3427  151.4961  134.0406 H   0  0  0  0  0  0  0  0  0  0  0  0
  142.1324  152.9557  131.7551 H   0  0  0  0  0  0  0  0  0  0  0  0
  141.3116  152.0352  133.0249 H   0  0  0  0  0  0  0  0  0  0  0  0
  143.0862  155.5630  134.1197 H   0  0  0  0  0  0  0  0  0  0  0  0
  142.4958  154.5402  135.4382 H   0  0  0  0  0  0  0  0  0  0  0  0
  1  2  1  0
  2  3  1  0
  3  4  2  0
  3  5  1  0
  5  6  1  0
  6  7  1  0
  7  8  1  0
  7  9  2  0
  6 10  2  0
 10 11  1  0
 11 12  2  0
 12 13  1  0
 13 14  2  0
 14 15  1  0
 15 16  1  0
 15 17  1  0
 14 18  1  0
 18 19  2  0
  2 20  1  0
 20 21  1  0
 21 22  1  0
 22 23  1  0
 23 24  1  0
 24 25  2  0
 24 26  1  0
 23 27  1  0
 19  5  1  0
 27 20  1  0
 19 11  1  0
  1 28  1  0
  1 29  1  0
  1 30  1  0
  2 31  1  6
  8 32  1  0
 10 33  1  0
 12 34  1  0
 13 35  1  0
 15 36  1  0
 18 37  1  0
 20 38  1  1
 21 39  1  0
 21 40  1  0
 22 41  1  0
 22 42  1  0
 27 43  1  0
 27 44  1  0
M  CHG  3   2   1   8  -1  26  -1
M  END
>  <UniqueID>  (85) 
84

>  <SMILES>  (85) 
C[N@@H+](C(=O)n1c(C([NH-])=O)cc2ccc(C(F)F)cc21)[C@@H]1CCN(C(=O)[O-])C1

>  <Energy>  (85) 
92.30588808020201

>  <Genealogy>  (85) 
C[NH+](C(=O)n1c(C([NH-])=O)cc2ccc(C(F)F)cc21)[C@@H]1CCN(C(=O)[O-])C1 (protonated)
C[N@@H+](C(=O)n1c(C([NH-])=O)cc2ccc(C(F)F)cc21)[C@@H]1CCN(C(=O)[O-])C1 (chirality)
C[N@@H+](C(=O)n1c(C([NH-])=O)cc2ccc(C(F)F)cc21)[C@@H]1CCN(C(=O)[O-])C1 (3D coordinates assigned)
C[N@@H+](C(=O)n1c(C([NH-])=O)cc2ccc(C(F)F)cc21)[C@@H]1CCN(C(=O)[O-])C1 (nonaromatic ring conformer: 92.30588808020201 kcal/mol)

>  <smiles>  (85) 
CN(C(=O)n1c(C(N)=O)cc2ccc(C(F)F)cc21)[C@@H]1CCN(C(=O)O)C1

>  <score_type>  (85) 
oracle

>  <origin>  (85) 
adg

>  <m_score__min__energy>  (85) 
-7.1600000000000001

>  <m_primary>  (85) 
energy

$$$$
85:0
     RDKit          3D

 47 48  0  0  0  0  0  0  0  0999 V2000
  138.0450  159.7640  131.0870 C   0  0  0  0  0  0  0  0  0  0  0  0
  139.1160  158.7480  131.4690 C   0  0  0  0  0  0  0  0  0  0  0  0
  140.2870  159.4230  132.1930 C   0  0  0  0  0  0  0  0  0  0  0  0
  140.7600  158.5830  133.3050 N   0  0  0  0  0  0  0  0  0  0  0  0
  140.3890  158.9500  134.6800 C   0  0  0  0  0  0  0  0  0  0  0  0
  139.5040  157.8750  135.3080 C   0  0  0  0  0  0  0  0  0  0  0  0
  141.5300  157.3800  133.0730 C   0  0  0  0  0  0  0  0  0  0  0  0
  140.9420  156.2620  133.0680 O   0  0  0  0  0  0  0  0  0  0  0  0
  143.0200  157.4180  132.8160 C   0  0  2  0  0  0  0  0  0  0  0  0
  143.6400  155.7070  132.6100 S   0  0  0  0  0  0  0  0  0  0  0  0
  143.9150  155.4660  134.2830 F   0  0  0  0  0  0  0  0  0  0  0  0
  143.7580  158.1660  133.9050 C   0  0  0  0  0  0  0  0  0  0  0  0
  143.2340  158.2790  135.0470 O   0  0  0  0  0  0  0  0  0  0  0  0
  145.0130  158.8180  133.6490 N   0  0  0  0  0  0  0  0  0  0  0  0
  145.2470  160.1580  133.5790 C   0  0  0  0  0  0  0  0  0  0  0  0
  144.2500  161.2200  133.8310 C   0  0  0  0  0  0  0  0  0  0  0  0
  142.8580  160.9250  133.7420 N   0  0  0  0  0  0  0  0  0  0  0  0
  144.6140  162.3920  134.1130 O   0  0  0  0  0  0  0  0  0  0  0  0
  146.5840  160.4040  133.2750 C   0  0  0  0  0  0  0  0  0  0  0  0
  147.1650  159.1610  133.1510 C   0  0  0  0  0  0  0  0  0  0  0  0
  148.4780  158.8120  132.8480 C   0  0  0  0  0  0  0  0  0  0  0  0
  148.7930  157.4450  132.7670 C   0  0  0  0  0  0  0  0  0  0  0  0
  147.7920  156.4610  132.9670 C   0  0  0  0  0  0  0  0  0  0  0  0
  148.1460  155.0050  132.9040 C   0  0  0  0  0  0  0  0  0  0  0  0
  149.4740  154.8690  132.5450 F   0  0  0  0  0  0  0  0  0  0  0  0
  146.4740  156.8530  133.2820 C   0  0  0  0  0  0  0  0  0  0  0  0
  146.1930  158.2210  133.3760 C   0  0  0  0  0  0  0  0  0  0  0  0
  137.5990  160.1871  131.9992 H   0  0  0  0  0  0  0  0  0  0  0  0
  138.4998  160.5705  130.4931 H   0  0  0  0  0  0  0  0  0  0  0  0
  137.2636  159.2673  130.4931 H   0  0  0  0  0  0  0  0  0  0  0  0
  138.6723  157.9910  132.1324 H   0  0  0  0  0  0  0  0  0  0  0  0
  139.4976  158.2813  130.5489 H   0  0  0  0  0  0  0  0  0  0  0  0
  141.1111  159.5786  131.4812 H   0  0  0  0  0  0  0  0  0  0  0  0
  139.9465  160.3880  132.5966 H   0  0  0  0  0  0  0  0  0  0  0  0
  141.3026  159.0623  135.2823 H   0  0  0  0  0  0  0  0  0  0  0  0
  139.8293  159.8966  134.6536 H   0  0  0  0  0  0  0  0  0  0  0  0
  139.5626  157.9461  136.4041 H   0  0  0  0  0  0  0  0  0  0  0  0
  138.4627  158.0232  134.9861 H   0  0  0  0  0  0  0  0  0  0  0  0
  139.8494  156.8815  134.9861 H   0  0  0  0  0  0  0  0  0  0  0  0
  143.2102  157.9744  131.8863 H   0  0  0  0  0  0  0  0  0  0  0  0
  142.4400  160.1400  134.2880 H   0  0  0  0  0  0  0  0  0  0  0  0
  147.0722  161.3828  133.1587 H   0  0  0  0  0  0  0  0  0  0  0  0
  149.2448  159.5820  132.6774 H   0  0  0  0  0  0  0  0  0  0  0  0
  149.8253  157.1356  132.5465 H   0  0  0  0  0  0  0  0  0  0  0  0
  147.9837  154.5452  133.8900 H   0  0  0  0  0  0  0  0  0  0  0  0
  147.5112  154.5052  132.1575 H   0  0  0  0  0  0  0  0  0  0  0  0
  145.6872  156.1027  133.4495 H   0  0  0  0  0  0  0  0  0  0  0  0
  1  2  1  0
  2  3  1  0
  3  4  1  0
  4  5  1  0
  5  6  1  0
  4  7  1  0
  7  8  2  0
  7  9  1  0
  9 10  1  0
 10 11  1  0
  9 12  1  0
 12 13  2  0
 12 14  1  0
 14 15  1  0
 15 16  1  0
 16 17  1  0
 16 18  2  0
 15 19  2  0
 19 20  1  0
 20 21  2  0
 21 22  1  0
 22 23  2  0
 23 24  1  0
 24 25  1  0
 23 26  1  0
 26 27  2  0
 27 14  1  0
 27 20  1  0
  1 28  1  0
  1 29  1  0
  1 30  1  0
  2 31  1  0
  2 32  1  0
  3 33  1  0
  3 34  1  0
  5 35  1  0
  5 36  1  0
  6 37  1  0
  6 38  1  0
  6 39  1  0
  9 40  1  6
 17 41  1  0
 19 42  1  0
 21 43  1  0
 22 44  1  0
 24 45  1  0
 24 46  1  0
 26 47  1  0
M  CHG  1  17  -1
M  END
>  <UniqueID>  (86) 
85

>  <SMILES>  (86) 
CCCN(CC)C(=O)[C@H](SF)C(=O)n1c(C([NH-])=O)cc2ccc(CF)cc21

>  <Energy>  (86) 
77.1548433829272

>  <Genealogy>  (86) 
CCCN(CC)C(=O)C(SF)C(=O)n1c(C([NH-])=O)cc2ccc(CF)cc21 (protonated)
CCCN(CC)C(=O)[C@H](SF)C(=O)n1c(C([NH-])=O)cc2ccc(CF)cc21 (chirality)
CCCN(CC)C(=O)[C@H](SF)C(=O)n1c(C([NH-])=O)cc2ccc(CF)cc21 (3D coordinates assigned)
CCCN(CC)C(=O)[C@H](SF)C(=O)n1c(C([NH-])=O)cc2ccc(CF)cc21 (optimized conformer: 77.1548433829272 kcal/mol)

>  <smiles>  (86) 
CCCN(CC)C(=O)C(SF)C(=O)n1c(C(N)=O)cc2ccc(CF)cc21

>  <score_type>  (86) 
oracle

>  <origin>  (86) 
adg

>  <m_score__min__energy>  (86) 
-6.9500000000000002

>  <m_primary>  (86) 
energy

$$$$
86:0
     RDKit          3D

 38 39  0  0  0  0  0  0  0  0999 V2000
  148.4420  154.2220  132.8090 C   0  0  0  0  0  0  0  0  0  0  0  0
  147.4150  154.8490  133.6500 N   0  0  0  0  0  0  0  0  0  0  0  0
  146.6360  153.9940  134.5600 C   0  0  0  0  0  0  0  0  0  0  0  0
  147.2190  154.0160  135.9400 C   0  0  0  0  0  0  0  0  0  0  0  0
  146.9970  153.0680  136.7380 O   0  0  0  0  0  0  0  0  0  0  0  0
  148.0380  155.0670  136.3310 O   0  0  0  0  0  0  0  0  0  0  0  0
  147.1670  156.2750  133.5590 C   0  0  0  0  0  0  0  0  0  0  0  0
  148.2220  157.1810  133.2500 C   0  0  0  0  0  0  0  0  0  0  0  0
  147.9870  158.5640  133.1530 C   0  0  0  0  0  0  0  0  0  0  0  0
  146.6940  159.0230  133.3720 C   0  0  0  0  0  0  0  0  0  0  0  0
  146.1830  160.3010  133.3220 C   0  0  0  0  0  0  0  0  0  0  0  0
  144.8260  160.1680  133.6120 C   0  0  0  0  0  0  0  0  0  0  0  0
  143.8920  161.3060  133.7330 C   0  0  0  0  0  0  0  0  0  0  0  0
  142.4860  161.0810  133.6600 N   0  0  0  0  0  0  0  0  0  0  0  0
  144.3240  162.4800  133.8790 O   0  0  0  0  0  0  0  0  0  0  0  0
  144.5150  158.8590  133.8270 N   0  0  0  0  0  0  0  0  0  0  0  0
  143.2260  158.2900  134.0890 C   0  0  0  0  0  0  0  0  0  0  0  0
  142.8160  158.1920  135.2770 O   0  0  0  0  0  0  0  0  0  0  0  0
  142.4170  157.7000  132.9750 C   0  0  0  0  0  0  0  0  0  0  0  0
  140.7540  158.4360  132.9640 P   0  0  1  0  0  0  0  0  0  0  0  0
  140.6330  159.3810  131.7900 O   0  0  0  0  0  0  0  0  0  0  0  0
  139.5960  157.2120  132.8160 O   0  0  0  0  0  0  0  0  0  0  0  0
  140.4880  159.2870  134.4030 O   0  0  0  0  0  0  0  0  0  0  0  0
  145.6670  158.1740  133.6830 C   0  0  0  0  0  0  0  0  0  0  0  0
  145.8660  156.7950  133.7790 C   0  0  0  0  0  0  0  0  0  0  0  0
  149.2056  153.7558  133.4490 H   0  0  0  0  0  0  0  0  0  0  0  0
  147.9770  153.4536  132.1739 H   0  0  0  0  0  0  0  0  0  0  0  0
  148.9130  154.9868  132.1739 H   0  0  0  0  0  0  0  0  0  0  0  0
  145.5996  154.3605  134.6004 H   0  0  0  0  0  0  0  0  0  0  0  0
  146.6624  152.9612  134.1825 H   0  0  0  0  0  0  0  0  0  0  0  0
  149.2376  156.7922  133.0845 H   0  0  0  0  0  0  0  0  0  0  0  0
  148.8024  159.2616  132.9110 H   0  0  0  0  0  0  0  0  0  0  0  0
  146.7296  161.2295  133.1003 H   0  0  0  0  0  0  0  0  0  0  0  0
  142.1040  160.2060  133.2370 H   0  0  0  0  0  0  0  0  0  0  0  0
  142.9134  157.9050  132.0150 H   0  0  0  0  0  0  0  0  0  0  0  0
  142.3322  156.6134  133.1240 H   0  0  0  0  0  0  0  0  0  0  0  0
  141.3710  159.6690  134.6380 H   0  0  0  0  0  0  0  0  0  0  0  0
  145.0285  156.1241  134.0210 H   0  0  0  0  0  0  0  0  0  0  0  0
  1  2  1  0
  2  3  1  0
  3  4  1  0
  4  5  2  0
  4  6  1  0
  2  7  1  0
  7  8  2  0
  8  9  1  0
  9 10  2  0
 10 11  1  0
 11 12  2  0
 12 13  1  0
 13 14  1  0
 13 15  2  0
 12 16  1  0
 16 17  1  0
 17 18  2  0
 17 19  1  0
 19 20  1  0
 20 21  2  0
 20 22  1  6
 20 23  1  0
 16 24  1  0
 24 25  2  0
 25  7  1  0
 24 10  1  0
  1 26  1  0
  1 27  1  0
  1 28  1  0
  3 29  1  0
  3 30  1  0
  8 31  1  0
  9 32  1  0
 11 33  1  0
 14 34  1  0
 19 35  1  0
 19 36  1  0
 23 37  1  0
 25 38  1  0
M  CHG  3   6  -1  14  -1  22  -1
M  END
>  <UniqueID>  (87) 
86

>  <SMILES>  (87) 
CN(CC(=O)[O-])c1ccc2cc(C([NH-])=O)n(C(=O)C[P@@](=O)([O-])O)c2c1

>  <Energy>  (87) 
72.16254512766045

>  <Genealogy>  (87) 
CN(CC(=O)[O-])c1ccc2cc(C([NH-])=O)n(C(=O)CP(=O)([O-])O)c2c1 (protonated)
CN(CC(=O)[O-])c1ccc2cc(C([NH-])=O)n(C(=O)C[P@@](=O)([O-])O)c2c1 (chirality)
CN(CC(=O)[O-])c1ccc2cc(C([NH-])=O)n(C(=O)C[P@@](=O)([O-])O)c2c1 (3D coordinates assigned)
CN(CC(=O)[O-])c1ccc2cc(C([NH-])=O)n(C(=O)C[P@@](=O)([O-])O)c2c1 (optimized conformer: 72.16254512766045 kcal/mol)

>  <smiles>  (87) 
CN(CC(=O)O)c1ccc2cc(C(N)=O)n(C(=O)CP(=O)(O)O)c2c1

>  <score_type>  (87) 
oracle

>  <origin>  (87) 
adg

>  <m_score__min__energy>  (87) 
-6.29

>  <m_primary>  (87) 
energy

$$$$
87:0
     RDKit          3D

 40 41  0  0  0  0  0  0  0  0999 V2000
  141.3400  149.2230  132.6940 C   0  0  0  0  0  0  0  0  0  0  0  0
  140.0830  150.0800  132.5270 C   0  0  1  0  0  0  0  0  0  0  0  0
  140.4590  151.4720  132.2690 N   0  0  0  0  0  0  0  0  0  0  0  0
  141.0350  152.3120  133.2800 C   0  0  0  0  0  0  0  0  0  0  0  0
  141.2390  151.8640  134.4410 O   0  0  0  0  0  0  0  0  0  0  0  0
  141.4190  153.7250  132.9600 C   0  0  0  0  0  0  0  0  0  0  0  0
  140.9270  154.6300  133.9940 N   0  0  0  0  0  0  0  0  0  0  0  0
  140.0730  155.7480  133.7240 C   0  0  0  0  0  0  0  0  0  0  0  0
  139.1010  155.6250  132.9290 O   0  0  0  0  0  0  0  0  0  0  0  0
  140.3190  157.0080  134.3670 N   0  0  0  0  0  0  0  0  0  0  0  0
  140.1450  158.2570  133.8510 C   0  0  0  0  0  0  0  0  0  0  0  0
  139.8000  158.5780  132.4510 C   0  0  0  0  0  0  0  0  0  0  0  0
  138.5250  158.2390  131.9140 N   0  0  0  0  0  0  0  0  0  0  0  0
  140.6610  159.1200  131.7060 O   0  0  0  0  0  0  0  0  0  0  0  0
  140.4090  159.2260  134.8170 C   0  0  0  0  0  0  0  0  0  0  0  0
  140.7610  158.5260  135.9480 C   0  0  0  0  0  0  0  0  0  0  0  0
  141.1050  158.9900  137.2140 C   0  0  0  0  0  0  0  0  0  0  0  0
  141.3830  158.0380  138.2110 C   0  0  0  0  0  0  0  0  0  0  0  0
  141.3150  156.6480  137.9280 C   0  0  0  0  0  0  0  0  0  0  0  0
  141.5460  155.6480  139.0310 C   0  0  0  0  0  0  0  0  0  0  0  0
  142.3620  154.6220  138.5870 F   0  0  0  0  0  0  0  0  0  0  0  0
  142.1590  156.2810  140.0970 F   0  0  0  0  0  0  0  0  0  0  0  0
  140.3520  155.0980  139.4610 F   0  0  0  0  0  0  0  0  0  0  0  0
  140.9410  156.2200  136.6320 C   0  0  0  0  0  0  0  0  0  0  0  0
  140.6960  157.1900  135.6530 C   0  0  0  0  0  0  0  0  0  0  0  0
  139.0830  149.4500  131.1490 S   0  0  0  0  0  0  0  0  0  0  0  0
  139.4790  150.3310  129.9720 O   0  0  0  0  0  0  0  0  0  0  0  0
  139.8220  147.9600  130.7780 O   0  0  0  0  0  0  0  0  0  0  0  0
  141.5476  149.0814  133.7649 H   0  0  0  0  0  0  0  0  0  0  0  0
  141.1820  148.2437  132.2186 H   0  0  0  0  0  0  0  0  0  0  0  0
  142.1938  149.7279  132.2186 H   0  0  0  0  0  0  0  0  0  0  0  0
  139.4918  150.0314  133.4534 H   0  0  0  0  0  0  0  0  0  0  0  0
  140.3290  151.8620  131.3070 H   0  0  0  0  0  0  0  0  0  0  0  0
  142.5151  153.7994  132.9041 H   0  0  0  0  0  0  0  0  0  0  0  0
  140.9725  154.0075  131.9952 H   0  0  0  0  0  0  0  0  0  0  0  0
  138.0170  157.3850  132.2380 H   0  0  0  0  0  0  0  0  0  0  0  0
  140.3488  160.3181  134.7002 H   0  0  0  0  0  0  0  0  0  0  0  0
  141.1578  160.0677  137.4282 H   0  0  0  0  0  0  0  0  0  0  0  0
  141.6564  158.3740  139.2221 H   0  0  0  0  0  0  0  0  0  0  0  0
  140.8450  155.1492  136.3992 H   0  0  0  0  0  0  0  0  0  0  0  0
  1  2  1  0
  2  3  1  0
  3  4  1  0
  4  5  2  0
  4  6  1  0
  6  7  1  0
  7  8  1  0
  8  9  2  0
  8 10  1  0
 10 11  1  0
 11 12  1  0
 12 13  1  0
 12 14  2  0
 11 15  2  0
 15 16  1  0
 16 17  2  0
 17 18  1  0
 18 19  2  0
 19 20  1  0
 20 21  1  0
 20 22  1  0
 20 23  1  0
 19 24  1  0
 24 25  2  0
  2 26  1  0
 26 27  2  0
 26 28  1  6
 25 10  1  0
 25 16  1  0
  1 29  1  0
  1 30  1  0
  1 31  1  0
  2 32  1  1
  3 33  1  0
  6 34  1  0
  6 35  1  0
 13 36  1  0
 15 37  1  0
 17 38  1  0
 18 39  1  0
 24 40  1  0
M  CHG  3   7  -1  13  -1  28  -1
M  END
>  <UniqueID>  (88) 
87

>  <SMILES>  (88) 
C[C@@H](NC(=O)C[N-]C(=O)n1c(C([NH-])=O)cc2ccc(C(F)(F)F)cc21)[S@@](=O)[O-]

>  <Energy>  (88) 
70.60278622276128

>  <Genealogy>  (88) 
CC(NC(=O)C[N-]C(=O)n1c(C([NH-])=O)cc2ccc(C(F)(F)F)cc21)S(=O)[O-] (protonated)
C[C@@H](NC(=O)C[N-]C(=O)n1c(C([NH-])=O)cc2ccc(C(F)(F)F)cc21)[S@@](=O)[O-] (chirality)
C[C@@H](NC(=O)C[N-]C(=O)n1c(C([NH-])=O)cc2ccc(C(F)(F)F)cc21)[S@@](=O)[O-] (3D coordinates assigned)
C[C@@H](NC(=O)C[N-]C(=O)n1c(C([NH-])=O)cc2ccc(C(F)(F)F)cc21)[S@@](=O)[O-] (optimized conformer: 70.60278622276128 kcal/mol)

>  <smiles>  (88) 
CC(NC(=O)CNC(=O)n1c(C(N)=O)cc2ccc(C(F)(F)F)cc21)S(=O)O

>  <score_type>  (88) 
oracle

>  <origin>  (88) 
adg

>  <m_score__min__energy>  (88) 
-7.4800000000000004

>  <m_primary>  (88) 
energy

$$$$
88:0
     RDKit          3D

 54 56  0  0  0  0  0  0  0  0999 V2000
  141.2690  157.9100  134.7010 C   0  0  0  0  0  0  0  0  0  0  0  0
  142.5750  158.5420  134.3180 C   0  0  0  0  0  0  0  0  0  0  0  0
  142.6480  159.9430  134.1170 C   0  0  0  0  0  0  0  0  0  0  0  0
  143.8590  160.5510  133.7440 C   0  0  0  0  0  0  0  0  0  0  0  0
  144.9710  159.7330  133.5660 C   0  0  0  0  0  0  0  0  0  0  0  0
  146.2660  160.0540  133.2230 C   0  0  0  0  0  0  0  0  0  0  0  0
  146.9530  158.8400  133.1950 C   0  0  0  0  0  0  0  0  0  0  0  0
  148.3830  158.7090  132.8390 C   0  0  0  0  0  0  0  0  0  0  0  0
  148.7990  157.8760  131.7600 N   0  0  0  0  0  0  0  0  0  0  0  0
  149.2500  159.3520  133.4920 O   0  0  0  0  0  0  0  0  0  0  0  0
  146.1140  157.8150  133.5060 N   0  0  0  0  0  0  0  0  0  0  0  0
  146.4330  156.4210  133.5970 C   0  0  0  0  0  0  0  0  0  0  0  0
  147.6390  156.0650  133.5200 O   0  0  0  0  0  0  0  0  0  0  0  0
  145.3220  155.4090  133.7940 C   0  0  1  0  0  0  0  0  0  0  0  0
  145.2300  154.5950  132.5830 N   0  0  0  0  0  0  0  0  0  0  0  0
  144.8150  153.2270  132.5640 C   0  0  0  0  0  0  0  0  0  0  0  0
  143.8450  152.8460  133.2750 O   0  0  0  0  0  0  0  0  0  0  0  0
  145.4970  152.3230  131.7450 O   0  0  0  0  0  0  0  0  0  0  0  0
  146.5420  151.4760  132.2170 C   0  0  0  0  0  0  0  0  0  0  0  0
  147.8320  152.2330  132.2790 C   0  0  0  0  0  0  0  0  0  0  0  0
  147.9310  153.5290  132.4630 O   0  0  0  0  0  0  0  0  0  0  0  0
  149.2160  153.7990  132.4310 C   0  0  0  0  0  0  0  0  0  0  0  0
  149.6910  154.9560  132.5760 O   0  0  0  0  0  0  0  0  0  0  0  0
  149.9530  152.7300  132.2320 O   0  0  0  0  0  0  0  0  0  0  0  0
  149.1100  151.7290  132.1290 C   0  0  0  0  0  0  0  0  0  0  0  0
  149.5010  150.3060  131.8970 C   0  0  0  0  0  0  0  0  0  0  0  0
  145.5170  154.4800  135.0230 C   0  0  2  0  0  0  0  0  0  0  0  0
  144.1900  154.1900  135.7360 C   0  0  0  0  0  0  0  0  0  0  0  0
  146.4200  155.0790  135.9380 O   0  0  0  0  0  0  0  0  0  0  0  0
  147.6420  153.9740  136.3870 P   0  0  1  0  0  0  0  0  0  0  0  0
  148.6100  154.6330  137.3440 O   0  0  0  0  0  0  0  0  0  0  0  0
  146.9540  152.6180  137.1260 O   0  0  0  0  0  0  0  0  0  0  0  0
  148.4780  153.4810  135.0020 O   0  0  0  0  0  0  0  0  0  0  0  0
  144.9080  158.3740  133.7330 C   0  0  0  0  0  0  0  0  0  0  0  0
  143.7200  157.7410  134.1120 C   0  0  0  0  0  0  0  0  0  0  0  0
  141.1882  157.8709  135.7973 H   0  0  0  0  0  0  0  0  0  0  0  0
  140.4395  158.5064  134.2932 H   0  0  0  0  0  0  0  0  0  0  0  0
  141.2220  156.8895  134.2932 H   0  0  0  0  0  0  0  0  0  0  0  0
  141.7481  160.5605  134.2543 H   0  0  0  0  0  0  0  0  0  0  0  0
  143.9259  161.6391  133.5974 H   0  0  0  0  0  0  0  0  0  0  0  0
  146.6722  161.0549  133.0153 H   0  0  0  0  0  0  0  0  0  0  0  0
  148.8240  156.8370  131.8610 H   0  0  0  0  0  0  0  0  0  0  0  0
  144.3986  155.9745  133.9877 H   0  0  0  0  0  0  0  0  0  0  0  0
  146.2869  151.1097  133.2223 H   0  0  0  0  0  0  0  0  0  0  0  0
  146.6563  150.6276  131.5263 H   0  0  0  0  0  0  0  0  0  0  0  0
  149.6397  149.8014  132.8646 H   0  0  0  0  0  0  0  0  0  0  0  0
  148.7096  149.7964  131.3278 H   0  0  0  0  0  0  0  0  0  0  0  0
  150.4417  150.2723  131.3278 H   0  0  0  0  0  0  0  0  0  0  0  0
  145.9232  153.5254  134.6573 H   0  0  0  0  0  0  0  0  0  0  0  0
  144.3437  154.2236  136.8247 H   0  0  0  0  0  0  0  0  0  0  0  0
  143.4456  154.9467  135.4473 H   0  0  0  0  0  0  0  0  0  0  0  0
  143.8291  153.1918  135.4473 H   0  0  0  0  0  0  0  0  0  0  0  0
  148.4630  154.2710  134.4030 H   0  0  0  0  0  0  0  0  0  0  0  0
  143.6784  156.6500  134.2459 H   0  0  0  0  0  0  0  0  0  0  0  0
  1  2  1  0
  2  3  2  0
  3  4  1  0
  4  5  2  0
  5  6  1  0
  6  7  2  0
  7  8  1  0
  8  9  1  0
  8 10  2  0
  7 11  1  0
 11 12  1  0
 12 13  2  0
 12 14  1  0
 14 15  1  0
 15 16  1  0
 16 17  2  0
 16 18  1  0
 18 19  1  0
 19 20  1  0
 20 21  1  0
 21 22  1  0
 22 23  2  0
 22 24  1  0
 24 25  1  0
 25 26  1  0
 14 27  1  0
 27 28  1  0
 27 29  1  0
 29 30  1  0
 30 31  2  0
 30 32  1  1
 30 33  1  0
 11 34  1  0
 34 35  2  0
 35  2  1  0
 34  5  1  0
 25 20  2  0
  1 36  1  0
  1 37  1  0
  1 38  1  0
  3 39  1  0
  4 40  1  0
  6 41  1  0
  9 42  1  0
 14 43  1  1
 19 44  1  0
 19 45  1  0
 26 46  1  0
 26 47  1  0
 26 48  1  0
 27 49  1  6
 28 50  1  0
 28 51  1  0
 28 52  1  0
 33 53  1  0
 35 54  1  0
M  CHG  3   9  -1  15  -1  32  -1
M  END
>  <UniqueID>  (89) 
88

>  <SMILES>  (89) 
Cc1ccc2cc(C([NH-])=O)n(C(=O)[C@@H]([N-]C(=O)OCc3oc(=O)oc3C)[C@H](C)O[P@@](=O)([O-])O)c2c1

>  <Energy>  (89) 
120.84994682216596

>  <Genealogy>  (89) 
Cc1ccc2cc(C([NH-])=O)n(C(=O)[C@@H]([N-]C(=O)OCc3oc(=O)oc3C)C(C)OP(=O)([O-])O)c2c1 (protonated)
Cc1ccc2cc(C([NH-])=O)n(C(=O)[C@@H]([N-]C(=O)OCc3oc(=O)oc3C)[C@H](C)O[P@@](=O)([O-])O)c2c1 (chirality)
Cc1ccc2cc(C([NH-])=O)n(C(=O)[C@@H]([N-]C(=O)OCc3oc(=O)oc3C)[C@H](C)O[P@@](=O)([O-])O)c2c1 (3D coordinates assigned)
Cc1ccc2cc(C([NH-])=O)n(C(=O)[C@@H]([N-]C(=O)OCc3oc(=O)oc3C)[C@H](C)O[P@@](=O)([O-])O)c2c1 (optimized conformer: 120.84994682216596 kcal/mol)

>  <smiles>  (89) 
Cc1ccc2cc(C(N)=O)n(C(=O)[C@@H](NC(=O)OCc3oc(=O)oc3C)C(C)OP(=O)(O)O)c2c1

>  <score_type>  (89) 
oracle

>  <origin>  (89) 
adg

>  <m_score__min__energy>  (89) 
-8.2699999999999996

>  <m_primary>  (89) 
energy

$$$$
89:0
     RDKit          3D

 47 48  0  0  0  0  0  0  0  0999 V2000
  141.7680  155.5860  138.7390 C   0  0  0  0  0  0  0  0  0  0  0  0
  141.3710  156.6280  137.7370 C   0  0  0  0  0  0  0  0  0  0  0  0
  141.4480  158.0020  138.0720 C   0  0  0  0  0  0  0  0  0  0  0  0
  141.1420  158.9870  137.1190 C   0  0  0  0  0  0  0  0  0  0  0  0
  140.7590  158.5680  135.8470 C   0  0  0  0  0  0  0  0  0  0  0  0
  140.4710  159.3060  134.7230 C   0  0  0  0  0  0  0  0  0  0  0  0
  140.2060  158.3720  133.7230 C   0  0  0  0  0  0  0  0  0  0  0  0
  139.8560  158.7420  132.3330 C   0  0  0  0  0  0  0  0  0  0  0  0
  138.6450  158.2600  131.7570 N   0  0  0  0  0  0  0  0  0  0  0  0
  140.6160  159.4730  131.6450 O   0  0  0  0  0  0  0  0  0  0  0  0
  140.3080  157.1040  134.2160 N   0  0  0  0  0  0  0  0  0  0  0  0
  140.1130  155.8660  133.5140 C   0  0  0  0  0  0  0  0  0  0  0  0
  138.9940  155.6100  132.9930 O   0  0  0  0  0  0  0  0  0  0  0  0
  141.2230  154.8550  133.4100 C   0  0  0  0  0  0  0  0  0  0  0  0
  140.7040  153.4660  133.0080 C   0  0  0  0  0  0  0  0  0  0  0  0
  141.4060  152.2920  133.7190 C   0  0  0  0  0  0  0  0  0  0  0  0
  142.3430  151.4730  132.8180 C   0  0  0  0  0  0  0  0  0  0  0  0
  141.9960  150.0550  132.8320 N   0  0  0  0  0  0  0  0  0  0  0  0
  140.6590  149.5650  132.9810 C   0  0  0  0  0  0  0  0  0  0  0  0
  140.2270  149.2160  134.1120 O   0  0  0  0  0  0  0  0  0  0  0  0
  139.7870  149.4130  131.7710 C   0  0  0  0  0  0  0  0  0  0  0  0
  140.2750  148.2830  130.8600 C   0  0  0  0  0  0  0  0  0  0  0  0
  139.1530  147.6870  130.0640 C   0  0  0  0  0  0  0  0  0  0  0  0
  138.3520  148.4310  129.4400 O   0  0  0  0  0  0  0  0  0  0  0  0
  139.0170  146.3050  129.9800 O   0  0  0  0  0  0  0  0  0  0  0  0
  140.6630  157.2430  135.5140 C   0  0  0  0  0  0  0  0  0  0  0  0
  140.9880  156.2410  136.4340 C   0  0  0  0  0  0  0  0  0  0  0  0
  141.6183  155.9789  139.7555 H   0  0  0  0  0  0  0  0  0  0  0  0
  141.1492  154.6875  138.5984 H   0  0  0  0  0  0  0  0  0  0  0  0
  142.8278  155.3270  138.5984 H   0  0  0  0  0  0  0  0  0  0  0  0
  141.7499  158.3000  139.0869 H   0  0  0  0  0  0  0  0  0  0  0  0
  141.2029  160.0564  137.3693 H   0  0  0  0  0  0  0  0  0  0  0  0
  140.4535  160.4021  134.6323 H   0  0  0  0  0  0  0  0  0  0  0  0
  138.1560  157.4260  132.1520 H   0  0  0  0  0  0  0  0  0  0  0  0
  141.9443  155.1968  132.6531 H   0  0  0  0  0  0  0  0  0  0  0  0
  141.6947  154.7669  134.3998 H   0  0  0  0  0  0  0  0  0  0  0  0
  139.6307  153.4185  133.2440 H   0  0  0  0  0  0  0  0  0  0  0  0
  140.9131  153.3521  131.9341 H   0  0  0  0  0  0  0  0  0  0  0  0
  141.9984  152.6989  134.5518 H   0  0  0  0  0  0  0  0  0  0  0  0
  140.6124  151.6068  134.0517 H   0  0  0  0  0  0  0  0  0  0  0  0
  142.2665  151.8493  131.7872 H   0  0  0  0  0  0  0  0  0  0  0  0
  143.3691  151.5805  133.1996 H   0  0  0  0  0  0  0  0  0  0  0  0
  138.7604  149.1899  132.0971 H   0  0  0  0  0  0  0  0  0  0  0  0
  139.8239  150.3532  131.2012 H   0  0  0  0  0  0  0  0  0  0  0  0
  141.0292  148.6845  130.1672 H   0  0  0  0  0  0  0  0  0  0  0  0
  140.7025  147.4924  131.4942 H   0  0  0  0  0  0  0  0  0  0  0  0
  140.9464  155.1791  136.1500 H   0  0  0  0  0  0  0  0  0  0  0  0
  1  2  1  0
  2  3  2  0
  3  4  1  0
  4  5  2  0
  5  6  1  0
  6  7  2  0
  7  8  1  0
  8  9  1  0
  8 10  2  0
  7 11  1  0
 11 12  1  0
 12 13  2  0
 12 14  1  0
 14 15  1  0
 15 16  1  0
 16 17  1  0
 17 18  1  0
 18 19  1  0
 19 20  2  0
 19 21  1  0
 21 22  1  0
 22 23  1  0
 23 24  2  0
 23 25  1  0
 11 26  1  0
 26 27  2  0
 27  2  1  0
 26  5  1  0
  1 28  1  0
  1 29  1  0
  1 30  1  0
  3 31  1  0
  4 32  1  0
  6 33  1  0
  9 34  1  0
 14 35  1  0
 14 36  1  0
 15 37  1  0
 15 38  1  0
 16 39  1  0
 16 40  1  0
 17 41  1  0
 17 42  1  0
 21 43  1  0
 21 44  1  0
 22 45  1  0
 22 46  1  0
 27 47  1  0
M  CHG  3   9  -1  18  -1  25  -1
M  END
>  <UniqueID>  (90) 
89

>  <SMILES>  (90) 
Cc1ccc2cc(C([NH-])=O)n(C(=O)CCCC[N-]C(=O)CCC(=O)[O-])c2c1

>  <Energy>  (90) 
73.55105748759247

>  <Genealogy>  (90) 
Cc1ccc2cc(C([NH-])=O)n(C(=O)CCCC[N-]C(=O)CCC(=O)[O-])c2c1 (protonated)
Cc1ccc2cc(C([NH-])=O)n(C(=O)CCCC[N-]C(=O)CCC(=O)[O-])c2c1 (3D coordinates assigned)
Cc1ccc2cc(C([NH-])=O)n(C(=O)CCCC[N-]C(=O)CCC(=O)[O-])c2c1 (optimized conformer: 73.55105748759247 kcal/mol)

>  <smiles>  (90) 
Cc1ccc2cc(C(N)=O)n(C(=O)CCCCNC(=O)CCC(=O)O)c2c1

>  <score_type>  (90) 
oracle

>  <origin>  (90) 
adg

>  <m_score__min__energy>  (90) 
-7.71

>  <m_primary>  (90) 
energy

$$$$
90:0
     RDKit          3D

 39 40  0  0  0  0  0  0  0  0999 V2000
  144.5670  153.7140  137.6550 N   0  0  0  0  0  0  0  0  0  0  0  0
  143.1460  153.8330  137.7580 C   0  0  0  0  0  0  0  0  0  0  0  0
  142.5120  153.0270  138.4890 O   0  0  0  0  0  0  0  0  0  0  0  0
  142.4160  154.9190  137.0730 C   0  0  0  0  0  0  0  0  0  0  0  0
  141.3190  155.5730  137.6280 C   0  0  0  0  0  0  0  0  0  0  0  0
  140.9690  156.5370  136.7110 C   0  0  0  0  0  0  0  0  0  0  0  0
  139.9410  157.4720  136.7480 C   0  0  0  0  0  0  0  0  0  0  0  0
  139.7870  158.3270  135.6440 C   0  0  0  0  0  0  0  0  0  0  0  0
  140.6380  158.2130  134.5130 C   0  0  0  0  0  0  0  0  0  0  0  0
  140.4930  159.1560  133.3460 C   0  0  0  0  0  0  0  0  0  0  0  0
  141.0450  160.3930  133.6360 F   0  0  0  0  0  0  0  0  0  0  0  0
  141.1380  158.6220  132.2470 F   0  0  0  0  0  0  0  0  0  0  0  0
  139.1570  159.3410  133.0390 F   0  0  0  0  0  0  0  0  0  0  0  0
  141.6830  157.2600  134.5230 C   0  0  0  0  0  0  0  0  0  0  0  0
  141.8310  156.4400  135.6480 C   0  0  0  0  0  0  0  0  0  0  0  0
  142.7280  155.4490  135.8570 N   0  0  0  0  0  0  0  0  0  0  0  0
  143.7160  154.9770  134.9260 C   0  0  0  0  0  0  0  0  0  0  0  0
  143.3620  154.3020  133.9210 O   0  0  0  0  0  0  0  0  0  0  0  0
  145.1010  155.2620  135.1460 N   0  0  0  0  0  0  0  0  0  0  0  0
  146.1730  154.3130  134.8750 C   0  0  0  0  0  0  0  0  0  0  0  0
  147.1340  154.2810  136.0190 C   0  0  0  0  0  0  0  0  0  0  0  0
  148.0900  155.1020  136.0560 O   0  0  0  0  0  0  0  0  0  0  0  0
  146.9800  153.3160  137.0190 O   0  0  0  0  0  0  0  0  0  0  0  0
  147.7010  153.3530  138.2460 C   0  0  0  0  0  0  0  0  0  0  0  0
  146.7990  153.5630  139.3070 O   0  0  0  0  0  0  0  0  0  0  0  0
  146.1390  152.0570  139.7590 P   0  0  0  0  0  0  0  0  0  0  0  0
  146.2330  151.0880  138.6010 O   0  0  0  0  0  0  0  0  0  0  0  0
  146.9630  151.4230  141.0940 O   0  0  0  0  0  0  0  0  0  0  0  0
  144.5120  152.2710  140.1690 O   0  0  0  0  0  0  0  0  0  0  0  0
  145.1400  154.4590  137.2020 H   0  0  0  0  0  0  0  0  0  0  0  0
  145.0570  152.9100  138.1070 H   0  0  0  0  0  0  0  0  0  0  0  0
  140.8355  155.3635  138.5936 H   0  0  0  0  0  0  0  0  0  0  0  0
  139.2683  157.5403  137.6157 H   0  0  0  0  0  0  0  0  0  0  0  0
  138.9982  159.0935  135.6558 H   0  0  0  0  0  0  0  0  0  0  0  0
  142.3649  157.1651  133.6651 H   0  0  0  0  0  0  0  0  0  0  0  0
  145.7436  153.3103  134.7328 H   0  0  0  0  0  0  0  0  0  0  0  0
  146.7074  154.6246  133.9654 H   0  0  0  0  0  0  0  0  0  0  0  0
  148.2261  152.3977  138.3931 H   0  0  0  0  0  0  0  0  0  0  0  0
  148.4359  154.1710  138.2183 H   0  0  0  0  0  0  0  0  0  0  0  0
  1  2  1  0
  2  3  2  0
  2  4  1  0
  4  5  2  0
  5  6  1  0
  6  7  2  0
  7  8  1  0
  8  9  2  0
  9 10  1  0
 10 11  1  0
 10 12  1  0
 10 13  1  0
  9 14  1  0
 14 15  2  0
 15 16  1  0
 16 17  1  0
 17 18  2  0
 17 19  1  0
 19 20  1  0
 20 21  1  0
 21 22  2  0
 21 23  1  0
 23 24  1  0
 24 25  1  0
 25 26  1  0
 26 27  2  0
 26 28  1  0
 26 29  1  0
 16  4  1  0
 15  6  1  0
  1 30  1  0
  1 31  1  0
  5 32  1  0
  7 33  1  0
  8 34  1  0
 14 35  1  0
 20 36  1  0
 20 37  1  0
 24 38  1  0
 24 39  1  0
M  CHG  3  19  -1  28  -1  29  -1
M  END
>  <UniqueID>  (91) 
90

>  <SMILES>  (91) 
NC(=O)c1cc2ccc(C(F)(F)F)cc2n1C(=O)[N-]CC(=O)OCOP(=O)([O-])[O-]

>  <Energy>  (91) 
73.38494692234923

>  <Genealogy>  (91) 
NC(=O)c1cc2ccc(C(F)(F)F)cc2n1C(=O)[N-]CC(=O)OCOP(=O)([O-])[O-] (protonated)
NC(=O)c1cc2ccc(C(F)(F)F)cc2n1C(=O)[N-]CC(=O)OCOP(=O)([O-])[O-] (3D coordinates assigned)
NC(=O)c1cc2ccc(C(F)(F)F)cc2n1C(=O)[N-]CC(=O)OCOP(=O)([O-])[O-] (optimized conformer: 73.38494692234923 kcal/mol)

>  <smiles>  (91) 
NC(=O)c1cc2ccc(C(F)(F)F)cc2n1C(=O)NCC(=O)OCOP(=O)(O)O

>  <score_type>  (91) 
oracle

>  <origin>  (91) 
adg

>  <m_score__min__energy>  (91) 
-7.5300000000000002

>  <m_primary>  (91) 
energy

$$$$
91:0
     RDKit          3D

 80 83  0  0  0  0  0  0  0  0999 V2000
  143.4270  156.5970  141.1250 C   0  0  0  0  0  0  0  0  0  0  0  0
  142.1010  156.0900  140.7230 N   0  0  0  0  0  0  0  0  0  0  0  0
  141.3620  157.1130  139.9410 C   0  0  0  0  0  0  0  0  0  0  0  0
  141.5140  156.9220  138.4320 C   0  0  0  0  0  0  0  0  0  0  0  0
  141.0440  155.5320  137.9630 C   0  0  0  0  0  0  0  0  0  0  0  0
  141.0250  154.4540  139.0990 C   0  0  1  0  0  0  0  0  0  0  0  0
  139.6380  154.4850  139.8330 C   0  0  0  0  0  0  0  0  0  0  0  0
  141.2480  153.0520  138.4510 C   0  0  0  0  0  0  0  0  0  0  0  0
  141.6490  151.9200  139.4400 C   0  0  1  0  0  0  0  0  0  0  0  0
  142.9700  151.3830  139.0940 N   0  0  0  0  0  0  0  0  0  0  0  0
  143.6280  150.3840  139.8870 C   0  0  0  0  0  0  0  0  0  0  0  0
  143.2050  150.1070  141.0420 O   0  0  0  0  0  0  0  0  0  0  0  0
  144.8490  149.6920  139.3510 C   0  0  0  0  0  0  0  0  0  0  0  0
  146.0360  150.1110  140.0250 O   0  0  0  0  0  0  0  0  0  0  0  0
  147.1860  150.5580  139.3640 C   0  0  0  0  0  0  0  0  0  0  0  0
  147.7020  149.8660  138.4420 O   0  0  0  0  0  0  0  0  0  0  0  0
  147.8470  151.8330  139.8150 C   0  0  0  0  0  0  0  0  0  0  0  0
  147.9250  152.8930  138.7380 C   0  0  0  0  0  0  0  0  0  0  0  0
  149.0180  153.1160  138.1440 O   0  0  0  0  0  0  0  0  0  0  0  0
  146.8030  153.7270  138.4200 N   0  0  0  0  0  0  0  0  0  0  0  0
  145.6450  153.3630  137.6030 C   0  0  0  0  0  0  0  0  0  0  0  0
  145.7150  154.0060  136.2060 C   0  0  0  0  0  0  0  0  0  0  0  0
  144.4670  154.8400  135.8790 C   0  0  0  0  0  0  0  0  0  0  0  0
  143.2410  153.9830  135.7050 C   0  0  0  0  0  0  0  0  0  0  0  0
  143.0740  152.9840  136.4610 O   0  0  0  0  0  0  0  0  0  0  0  0
  142.2260  154.2980  134.7370 N   0  0  0  0  0  0  0  0  0  0  0  0
  141.5160  153.3950  134.0110 C   0  0  0  0  0  0  0  0  0  0  0  0
  141.8290  151.9700  133.9170 C   0  0  0  0  0  0  0  0  0  0  0  0
  142.7090  151.4980  132.9010 N   0  0  0  0  0  0  0  0  0  0  0  0
  141.3600  151.1690  134.7650 O   0  0  0  0  0  0  0  0  0  0  0  0
  140.4630  154.0020  133.3330 C   0  0  0  0  0  0  0  0  0  0  0  0
  140.5520  155.3350  133.6660 C   0  0  0  0  0  0  0  0  0  0  0  0
  139.7380  156.4010  133.2940 C   0  0  0  0  0  0  0  0  0  0  0  0
  140.0330  157.6700  133.8180 C   0  0  0  0  0  0  0  0  0  0  0  0
  141.1030  157.8450  134.7310 C   0  0  0  0  0  0  0  0  0  0  0  0
  141.4270  159.2250  135.2410 C   0  0  0  0  0  0  0  0  0  0  0  0
  141.0040  160.1590  134.3160 F   0  0  0  0  0  0  0  0  0  0  0  0
  142.7870  159.3750  135.4470 F   0  0  0  0  0  0  0  0  0  0  0  0
  140.7770  159.4560  136.4420 F   0  0  0  0  0  0  0  0  0  0  0  0
  141.9160  156.7350  135.0760 C   0  0  0  0  0  0  0  0  0  0  0  0
  141.6210  155.4870  134.5190 C   0  0  0  0  0  0  0  0  0  0  0  0
  141.6380  152.3470  140.9150 C   0  0  0  0  0  0  0  0  0  0  0  0
  142.3850  153.6630  141.1720 C   0  0  0  0  0  0  0  0  0  0  0  0
  142.2090  154.7500  140.0750 C   0  0  2  0  0  0  0  0  0  0  0  0
  143.4926  156.6221  142.2228 H   0  0  0  0  0  0  0  0  0  0  0  0
  144.2093  155.9345  140.7260 H   0  0  0  0  0  0  0  0  0  0  0  0
  143.5677  157.6124  140.7260 H   0  0  0  0  0  0  0  0  0  0  0  0
  140.2944  157.0499  140.1984 H   0  0  0  0  0  0  0  0  0  0  0  0
  141.7834  158.0964  140.1966 H   0  0  0  0  0  0  0  0  0  0  0  0
  140.9162  157.6887  137.9174 H   0  0  0  0  0  0  0  0  0  0  0  0
  142.5831  157.0126  138.1897 H   0  0  0  0  0  0  0  0  0  0  0  0
  140.0253  155.6284  137.5594 H   0  0  0  0  0  0  0  0  0  0  0  0
  141.7657  155.1881  137.2074 H   0  0  0  0  0  0  0  0  0  0  0  0
  139.7989  154.4814  140.9212 H   0  0  0  0  0  0  0  0  0  0  0  0
  139.0916  155.3956  139.5461 H   0  0  0  0  0  0  0  0  0  0  0  0
  139.0515  153.5997  139.5461 H   0  0  0  0  0  0  0  0  0  0  0  0
  140.3127  152.7542  137.9545 H   0  0  0  0  0  0  0  0  0  0  0  0
  142.0959  153.1672  137.7598 H   0  0  0  0  0  0  0  0  0  0  0  0
  140.8776  151.1433  139.3319 H   0  0  0  0  0  0  0  0  0  0  0  0
  143.4880  151.7910  138.2800 H   0  0  0  0  0  0  0  0  0  0  0  0
  144.7294  148.6065  139.4826 H   0  0  0  0  0  0  0  0  0  0  0  0
  144.9501  149.9531  138.2872 H   0  0  0  0  0  0  0  0  0  0  0  0
  147.2747  152.2399  140.6617 H   0  0  0  0  0  0  0  0  0  0  0  0
  148.8811  151.5784  140.0903 H   0  0  0  0  0  0  0  0  0  0  0  0
  145.6158  152.2690  137.4918 H   0  0  0  0  0  0  0  0  0  0  0  0
  144.7385  153.7300  138.1066 H   0  0  0  0  0  0  0  0  0  0  0  0
  146.5980  154.6606  136.1628 H   0  0  0  0  0  0  0  0  0  0  0  0
  145.7772  153.1937  135.4669 H   0  0  0  0  0  0  0  0  0  0  0  0
  144.2897  155.5497  136.7005 H   0  0  0  0  0  0  0  0  0  0  0  0
  144.6502  155.3649  134.9298 H   0  0  0  0  0  0  0  0  0  0  0  0
  142.4870  151.6490  131.8940 H   0  0  0  0  0  0  0  0  0  0  0  0
  139.7227  153.5224  132.6758 H   0  0  0  0  0  0  0  0  0  0  0  0
  138.8891  156.2538  132.6101 H   0  0  0  0  0  0  0  0  0  0  0  0
  139.4273  158.5374  133.5167 H   0  0  0  0  0  0  0  0  0  0  0  0
  142.7624  156.8538  135.7685 H   0  0  0  0  0  0  0  0  0  0  0  0
  140.5928  152.4707  141.2348 H   0  0  0  0  0  0  0  0  0  0  0  0
  142.1560  151.5618  141.4852 H   0  0  0  0  0  0  0  0  0  0  0  0
  142.0236  154.0789  142.1240 H   0  0  0  0  0  0  0  0  0  0  0  0
  143.4553  153.4093  141.1809 H   0  0  0  0  0  0  0  0  0  0  0  0
  143.1020  154.7386  139.4328 H   0  0  0  0  0  0  0  0  0  0  0  0
  1  2  1  0
  2  3  1  0
  3  4  1  0
  4  5  1  0
  5  6  1  0
  6  7  1  1
  6  8  1  0
  8  9  1  0
  9 10  1  0
 10 11  1  0
 11 12  2  0
 11 13  1  0
 13 14  1  0
 14 15  1  0
 15 16  2  0
 15 17  1  0
 17 18  1  0
 18 19  2  0
 18 20  1  0
 20 21  1  0
 21 22  1  0
 22 23  1  0
 23 24  1  0
 24 25  2  0
 24 26  1  0
 26 27  1  0
 27 28  1  0
 28 29  1  0
 28 30  2  0
 27 31  2  0
 31 32  1  0
 32 33  2  0
 33 34  1  0
 34 35  2  0
 35 36  1  0
 36 37  1  0
 36 38  1  0
 36 39  1  0
 35 40  1  0
 40 41  2  0
  9 42  1  0
 42 43  1  0
 43 44  1  0
 44  2  1  0
 44  6  1  0
 41 26  1  0
 41 32  1  0
  1 45  1  0
  1 46  1  0
  1 47  1  0
  3 48  1  0
  3 49  1  0
  4 50  1  0
  4 51  1  0
  5 52  1  0
  5 53  1  0
  7 54  1  0
  7 55  1  0
  7 56  1  0
  8 57  1  0
  8 58  1  0
  9 59  1  1
 10 60  1  0
 13 61  1  0
 13 62  1  0
 17 63  1  0
 17 64  1  0
 21 65  1  0
 21 66  1  0
 22 67  1  0
 22 68  1  0
 23 69  1  0
 23 70  1  0
 29 71  1  0
 31 72  1  0
 33 73  1  0
 34 74  1  0
 40 75  1  0
 42 76  1  0
 42 77  1  0
 43 78  1  0
 43 79  1  0
 44 80  1  6
M  CHG  2  20  -1  29  -1
M  END
>  <UniqueID>  (92) 
91

>  <SMILES>  (92) 
CN1CCC[C@@]2(C)C[C@@H](NC(=O)COC(=O)CC(=O)[N-]CCCC(=O)n3c(C([NH-])=O)cc4ccc(C(F)(F)F)cc43)CCC12

>  <Energy>  (92) 
148.33543887347744

>  <Genealogy>  (92) 
CN1CCCC2(C)CC(NC(=O)COC(=O)CC(=O)[N-]CCCC(=O)n3c(C([NH-])=O)cc4ccc(C(F)(F)F)cc43)CCC12 (protonated)
CN1CCC[C@@]2(C)C[C@@H](NC(=O)COC(=O)CC(=O)[N-]CCCC(=O)n3c(C([NH-])=O)cc4ccc(C(F)(F)F)cc43)CCC12 (chirality)
CN1CCC[C@@]2(C)C[C@@H](NC(=O)COC(=O)CC(=O)[N-]CCCC(=O)n3c(C([NH-])=O)cc4ccc(C(F)(F)F)cc43)CCC12 (3D coordinates assigned)
CN1CCC[C@@]2(C)C[C@@H](NC(=O)COC(=O)CC(=O)[N-]CCCC(=O)n3c(C([NH-])=O)cc4ccc(C(F)(F)F)cc43)CCC12 (nonaromatic ring conformer: 148.33543887347744 kcal/mol)

>  <smiles>  (92) 
CN1CCCC2(C)CC(NC(=O)COC(=O)CC(=O)NCCCC(=O)n3c(C(N)=O)cc4ccc(C(F)(F)F)cc43)CCC12

>  <score_type>  (92) 
oracle

>  <origin>  (92) 
adg

>  <m_score__min__energy>  (92) 
-9.0500000000000007

>  <m_primary>  (92) 
energy

$$$$
92:0
     RDKit          3D

 50 52  0  0  0  0  0  0  0  0999 V2000
  141.8920  156.7950  135.0830 C   0  0  0  0  0  0  0  0  0  0  0  0
  142.9230  157.7350  134.5300 C   0  0  0  0  0  0  0  0  0  0  0  0
  142.5760  159.0810  134.2490 C   0  0  0  0  0  0  0  0  0  0  0  0
  143.5210  159.9590  133.6870 C   0  0  0  0  0  0  0  0  0  0  0  0
  144.7950  159.4650  133.4210 C   0  0  0  0  0  0  0  0  0  0  0  0
  145.8890  160.0870  132.8610 C   0  0  0  0  0  0  0  0  0  0  0  0
  146.8880  159.1180  132.8340 C   0  0  0  0  0  0  0  0  0  0  0  0
  148.2700  159.3870  132.3860 C   0  0  0  0  0  0  0  0  0  0  0  0
  149.3880  158.7590  133.0110 N   0  0  0  0  0  0  0  0  0  0  0  0
  148.4710  160.2440  131.4840 O   0  0  0  0  0  0  0  0  0  0  0  0
  146.4260  157.9380  133.3360 N   0  0  0  0  0  0  0  0  0  0  0  0
  147.0970  156.6690  133.3800 C   0  0  0  0  0  0  0  0  0  0  0  0
  148.1440  156.5390  134.0720 O   0  0  0  0  0  0  0  0  0  0  0  0
  146.5520  155.4860  132.6350 C   0  0  0  0  0  0  0  0  0  0  0  0
  145.4900  154.9270  133.3760 O   0  0  0  0  0  0  0  0  0  0  0  0
  145.7620  153.5710  133.6590 C   0  0  0  0  0  0  0  0  0  0  0  0
  144.9890  152.6990  132.7110 C   0  0  0  0  0  0  0  0  0  0  0  0
  145.6240  152.0730  131.8180 O   0  0  0  0  0  0  0  0  0  0  0  0
  143.5110  152.5470  132.7910 C   0  0  0  0  0  0  0  0  0  0  0  0
  142.9530  151.2550  132.7320 C   0  0  0  0  0  0  0  0  0  0  0  0
  141.5680  151.0670  132.8310 C   0  0  0  0  0  0  0  0  0  0  0  0
  140.9010  149.4370  132.8160 S   0  0  0  0  0  0  0  0  0  0  0  0
  139.7310  149.2980  131.4820 C   0  0  0  0  0  0  0  0  0  0  0  0
  140.2120  149.1590  134.1230 O   0  0  0  0  0  0  0  0  0  0  0  0
  142.0000  148.4300  132.6240 O   0  0  0  0  0  0  0  0  0  0  0  0
  140.7280  152.1740  132.9890 C   0  0  0  0  0  0  0  0  0  0  0  0
  141.2660  153.4610  133.0360 C   0  0  0  0  0  0  0  0  0  0  0  0
  142.6470  153.6560  132.9360 C   0  0  0  0  0  0  0  0  0  0  0  0
  143.1230  154.9270  132.9480 F   0  0  0  0  0  0  0  0  0  0  0  0
  145.1440  158.1680  133.6960 C   0  0  0  0  0  0  0  0  0  0  0  0
  144.2200  157.2640  134.2310 C   0  0  0  0  0  0  0  0  0  0  0  0
  141.9225  156.8228  136.1822 H   0  0  0  0  0  0  0  0  0  0  0  0
  140.8938  157.1003  134.7360 H   0  0  0  0  0  0  0  0  0  0  0  0
  142.1040  155.7729  134.7360 H   0  0  0  0  0  0  0  0  0  0  0  0
  141.5608  159.4412  134.4720 H   0  0  0  0  0  0  0  0  0  0  0  0
  143.2609  161.0044  133.4645 H   0  0  0  0  0  0  0  0  0  0  0  0
  145.9584  161.1272  132.5101 H   0  0  0  0  0  0  0  0  0  0  0  0
  150.3560  158.9520  132.6680 H   0  0  0  0  0  0  0  0  0  0  0  0
  149.2790  158.1910  133.8810 H   0  0  0  0  0  0  0  0  0  0  0  0
  146.1848  155.8079  131.6493 H   0  0  0  0  0  0  0  0  0  0  0  0
  147.3447  154.7359  132.4972 H   0  0  0  0  0  0  0  0  0  0  0  0
  146.8385  153.3797  133.5388 H   0  0  0  0  0  0  0  0  0  0  0  0
  145.4636  153.3443  134.6932 H   0  0  0  0  0  0  0  0  0  0  0  0
  143.6123  150.3834  132.6067 H   0  0  0  0  0  0  0  0  0  0  0  0
  138.7181  149.1777  131.8937 H   0  0  0  0  0  0  0  0  0  0  0  0
  139.7700  150.2071  130.8639 H   0  0  0  0  0  0  0  0  0  0  0  0
  139.9819  148.4233  130.8639 H   0  0  0  0  0  0  0  0  0  0  0  0
  139.6410  152.0300  133.0764 H   0  0  0  0  0  0  0  0  0  0  0  0
  140.5990  154.3279  133.1525 H   0  0  0  0  0  0  0  0  0  0  0  0
  144.4964  156.2151  134.4137 H   0  0  0  0  0  0  0  0  0  0  0  0
  1  2  1  0
  2  3  2  0
  3  4  1  0
  4  5  2  0
  5  6  1  0
  6  7  2  0
  7  8  1  0
  8  9  1  0
  8 10  2  0
  7 11  1  0
 11 12  1  0
 12 13  2  0
 12 14  1  0
 14 15  1  0
 15 16  1  0
 16 17  1  0
 17 18  2  0
 17 19  1  0
 19 20  2  0
 20 21  1  0
 21 22  1  0
 22 23  1  0
 22 24  2  0
 22 25  2  0
 21 26  2  0
 26 27  1  0
 27 28  2  0
 28 29  1  0
 11 30  1  0
 30 31  2  0
 31  2  1  0
 30  5  1  0
 28 19  1  0
  1 32  1  0
  1 33  1  0
  1 34  1  0
  3 35  1  0
  4 36  1  0
  6 37  1  0
  9 38  1  0
  9 39  1  0
 14 40  1  0
 14 41  1  0
 16 42  1  0
 16 43  1  0
 20 44  1  0
 23 45  1  0
 23 46  1  0
 23 47  1  0
 26 48  1  0
 27 49  1  0
 31 50  1  0
M  END
>  <UniqueID>  (93) 
92

>  <SMILES>  (93) 
Cc1ccc2cc(C(N)=O)n(C(=O)COCC(=O)c3cc(S(C)(=O)=O)ccc3F)c2c1

>  <Energy>  (93) 
92.64585554447751

>  <Genealogy>  (93) 
Cc1ccc2cc(C(N)=O)n(C(=O)COCC(=O)c3cc(S(C)(=O)=O)ccc3F)c2c1 (3D coordinates assigned)
Cc1ccc2cc(C(N)=O)n(C(=O)COCC(=O)c3cc(S(C)(=O)=O)ccc3F)c2c1 (optimized conformer: 92.64585554447751 kcal/mol)

>  <smiles>  (93) 
Cc1ccc2cc(C(N)=O)n(C(=O)COCC(=O)c3cc(S(C)(=O)=O)ccc3F)c2c1

>  <score_type>  (93) 
oracle

>  <origin>  (93) 
adg

>  <m_score__min__energy>  (93) 
-9.3399999999999999

>  <m_primary>  (93) 
energy

$$$$
93:0
     RDKit          3D

 52 54  0  0  0  0  0  0  0  0999 V2000
  142.7300  157.4960  134.8470 N   0  0  0  0  0  0  0  0  0  0  0  0
  142.9870  156.9110  133.5700 C   0  0  0  0  0  0  0  0  0  0  0  0
  143.3750  157.6440  132.6220 O   0  0  0  0  0  0  0  0  0  0  0  0
  142.7620  155.4640  133.3670 C   0  0  0  0  0  0  0  0  0  0  0  0
  143.7950  154.5370  133.2320 C   0  0  0  0  0  0  0  0  0  0  0  0
  143.1740  153.3110  133.1430 C   0  0  0  0  0  0  0  0  0  0  0  0
  143.7190  152.0420  132.9700 C   0  0  0  0  0  0  0  0  0  0  0  0
  142.8370  150.9530  132.8640 C   0  0  0  0  0  0  0  0  0  0  0  0
  141.4330  151.1470  132.9420 C   0  0  0  0  0  0  0  0  0  0  0  0
  140.4870  149.9880  132.7530 C   0  0  0  0  0  0  0  0  0  0  0  0
  140.2320  149.3700  133.9680 F   0  0  0  0  0  0  0  0  0  0  0  0
  139.2960  150.4550  132.2270 F   0  0  0  0  0  0  0  0  0  0  0  0
  141.0230  149.0450  131.8900 F   0  0  0  0  0  0  0  0  0  0  0  0
  140.9180  152.4540  133.0970 C   0  0  0  0  0  0  0  0  0  0  0  0
  141.8200  153.5190  133.2190 C   0  0  0  0  0  0  0  0  0  0  0  0
  141.5510  154.8370  133.3540 N   0  0  0  0  0  0  0  0  0  0  0  0
  140.2440  155.4360  133.4010 C   0  0  0  0  0  0  0  0  0  0  0  0
  139.3100  154.9640  132.6980 O   0  0  0  0  0  0  0  0  0  0  0  0
  140.0020  156.5550  134.2590 N   0  0  0  0  0  0  0  0  0  0  0  0
  139.3090  157.7680  133.8340 C   0  0  0  0  0  0  0  0  0  0  0  0
  140.1860  158.9760  133.9700 C   0  0  0  0  0  0  0  0  0  0  0  0
  140.4750  159.6750  132.9580 O   0  0  0  0  0  0  0  0  0  0  0  0
  140.6230  159.3570  135.2440 O   0  0  0  0  0  0  0  0  0  0  0  0
  140.1900  158.7010  136.4310 C   0  0  0  0  0  0  0  0  0  0  0  0
  141.3220  158.6840  137.4560 C   0  0  0  0  0  0  0  0  0  0  0  0
  141.9500  157.4140  137.4740 O   0  0  0  0  0  0  0  0  0  0  0  0
  140.9970  156.3670  137.5070 C   0  0  1  0  0  0  0  0  0  0  0  0
  141.5430  155.1840  136.6600 C   0  0  0  0  0  0  0  0  0  0  0  0
  142.0120  154.0330  137.5540 C   0  0  0  0  0  0  0  0  0  0  0  0
  140.8930  153.6040  138.5140 C   0  0  0  0  0  0  0  0  0  0  0  0
  140.0260  154.8030  138.9400 C   0  0  0  0  0  0  0  0  0  0  0  0
  140.7650  156.0060  138.8650 O   0  0  0  0  0  0  0  0  0  0  0  0
  141.7660  157.4980  135.2480 H   0  0  0  0  0  0  0  0  0  0  0  0
  144.8754  154.7414  133.2028 H   0  0  0  0  0  0  0  0  0  0  0  0
  144.8080  151.8958  132.9178 H   0  0  0  0  0  0  0  0  0  0  0  0
  143.2390  149.9394  132.7190 H   0  0  0  0  0  0  0  0  0  0  0  0
  139.8326  152.6312  133.1213 H   0  0  0  0  0  0  0  0  0  0  0  0
  139.0107  157.6592  132.7808 H   0  0  0  0  0  0  0  0  0  0  0  0
  138.4276  157.9063  134.4775 H   0  0  0  0  0  0  0  0  0  0  0  0
  139.3261  159.2376  136.8502 H   0  0  0  0  0  0  0  0  0  0  0  0
  139.9032  157.6668  136.1900 H   0  0  0  0  0  0  0  0  0  0  0  0
  142.0636  159.4518  137.1904 H   0  0  0  0  0  0  0  0  0  0  0  0
  140.9054  158.8913  138.4527 H   0  0  0  0  0  0  0  0  0  0  0  0
  140.0330  156.6752  137.0760 H   0  0  0  0  0  0  0  0  0  0  0  0
  140.7453  154.8202  135.9956 H   0  0  0  0  0  0  0  0  0  0  0  0
  142.4023  155.5425  136.0743 H   0  0  0  0  0  0  0  0  0  0  0  0
  142.2949  153.1774  136.9232 H   0  0  0  0  0  0  0  0  0  0  0  0
  142.8756  154.3721  138.1449 H   0  0  0  0  0  0  0  0  0  0  0  0
  140.2552  152.8622  138.0111 H   0  0  0  0  0  0  0  0  0  0  0  0
  141.3561  153.1750  139.4148 H   0  0  0  0  0  0  0  0  0  0  0  0
  139.1538  154.8729  138.2733 H   0  0  0  0  0  0  0  0  0  0  0  0
  139.7005  154.6522  139.9799 H   0  0  0  0  0  0  0  0  0  0  0  0
  1  2  1  0
  2  3  2  0
  2  4  1  0
  4  5  2  0
  5  6  1  0
  6  7  2  0
  7  8  1  0
  8  9  2  0
  9 10  1  0
 10 11  1  0
 10 12  1  0
 10 13  1  0
  9 14  1  0
 14 15  2  0
 15 16  1  0
 16 17  1  0
 17 18  2  0
 17 19  1  0
 19 20  1  0
 20 21  1  0
 21 22  2  0
 21 23  1  0
 23 24  1  0
 24 25  1  0
 25 26  1  0
 26 27  1  0
 27 28  1  0
 28 29  1  0
 29 30  1  0
 30 31  1  0
 31 32  1  0
 16  4  1  0
 32 27  1  0
 15  6  1  0
  1 33  1  0
  5 34  1  0
  7 35  1  0
  8 36  1  0
 14 37  1  0
 20 38  1  0
 20 39  1  0
 24 40  1  0
 24 41  1  0
 25 42  1  0
 25 43  1  0
 27 44  1  6
 28 45  1  0
 28 46  1  0
 29 47  1  0
 29 48  1  0
 30 49  1  0
 30 50  1  0
 31 51  1  0
 31 52  1  0
M  CHG  2   1  -1  19  -1
M  END
>  <UniqueID>  (94) 
93

>  <SMILES>  (94) 
[NH-]C(=O)c1cc2ccc(C(F)(F)F)cc2n1C(=O)[N-]CC(=O)OCCO[C@H]1CCCCO1

>  <Energy>  (94) 
95.42538461509629

>  <Genealogy>  (94) 
[NH-]C(=O)c1cc2ccc(C(F)(F)F)cc2n1C(=O)[N-]CC(=O)OCCOC1CCCCO1 (protonated)
[NH-]C(=O)c1cc2ccc(C(F)(F)F)cc2n1C(=O)[N-]CC(=O)OCCO[C@H]1CCCCO1 (chirality)
[NH-]C(=O)c1cc2ccc(C(F)(F)F)cc2n1C(=O)[N-]CC(=O)OCCO[C@H]1CCCCO1 (3D coordinates assigned)
[NH-]C(=O)c1cc2ccc(C(F)(F)F)cc2n1C(=O)[N-]CC(=O)OCCO[C@H]1CCCCO1 (nonaromatic ring conformer: 95.42538461509629 kcal/mol)

>  <smiles>  (94) 
NC(=O)c1cc2ccc(C(F)(F)F)cc2n1C(=O)NCC(=O)OCCOC1CCCCO1

>  <score_type>  (94) 
oracle

>  <origin>  (94) 
adg

>  <m_score__min__energy>  (94) 
-8.0299999999999994

>  <m_primary>  (94) 
energy

$$$$
94:0
     RDKit          3D

 54 55  0  0  0  0  0  0  0  0999 V2000
  138.5040  148.9290  129.6230 C   0  0  0  0  0  0  0  0  0  0  0  0
  138.9320  147.8100  130.4840 N   0  0  0  0  0  0  0  0  0  0  0  0
  139.1180  146.6040  129.6570 C   0  0  0  0  0  0  0  0  0  0  0  0
  140.1880  148.1300  131.1990 C   0  0  0  0  0  0  0  0  0  0  0  0
  140.4420  149.6470  131.2130 C   0  0  0  0  0  0  0  0  0  0  0  0
  140.3200  150.2460  132.6230 C   0  0  0  0  0  0  0  0  0  0  0  0
  141.5820  150.8680  133.0650 N   0  0  0  0  0  0  0  0  0  0  0  0
  142.8500  150.3360  132.5500 C   0  0  0  0  0  0  0  0  0  0  0  0
  141.5380  151.9990  133.9770 C   0  0  0  0  0  0  0  0  0  0  0  0
  141.3410  151.7900  135.2060 O   0  0  0  0  0  0  0  0  0  0  0  0
  141.7010  153.4070  133.5470 C   0  0  0  0  0  0  0  0  0  0  0  0
  140.7100  154.1720  133.4170 O   0  0  0  0  0  0  0  0  0  0  0  0
  143.0200  153.9090  133.3060 N   0  0  0  0  0  0  0  0  0  0  0  0
  143.3110  155.3170  133.0600 C   0  0  0  0  0  0  0  0  0  0  0  0
  143.0070  156.1300  134.2830 C   0  0  0  0  0  0  0  0  0  0  0  0
  142.7720  155.5450  135.3740 O   0  0  0  0  0  0  0  0  0  0  0  0
  142.9500  157.5650  134.2150 N   0  0  0  0  0  0  0  0  0  0  0  0
  141.8660  158.3670  134.4160 C   0  0  0  0  0  0  0  0  0  0  0  0
  140.4870  157.9070  134.6930 C   0  0  0  0  0  0  0  0  0  0  0  0
  140.2720  156.6410  135.3130 N   0  0  0  0  0  0  0  0  0  0  0  0
  139.4950  158.6220  134.3970 O   0  0  0  0  0  0  0  0  0  0  0  0
  142.2160  159.7060  134.2590 C   0  0  0  0  0  0  0  0  0  0  0  0
  143.5580  159.7000  133.9540 C   0  0  0  0  0  0  0  0  0  0  0  0
  144.4260  160.7590  133.7110 C   0  0  0  0  0  0  0  0  0  0  0  0
  145.7740  160.4580  133.4460 C   0  0  0  0  0  0  0  0  0  0  0  0
  146.2250  159.1150  133.4280 C   0  0  0  0  0  0  0  0  0  0  0  0
  147.6750  158.8140  133.1730 C   0  0  0  0  0  0  0  0  0  0  0  0
  148.3980  159.0000  134.3370 F   0  0  0  0  0  0  0  0  0  0  0  0
  148.1650  159.6550  132.1910 F   0  0  0  0  0  0  0  0  0  0  0  0
  145.3150  158.0670  133.6910 C   0  0  0  0  0  0  0  0  0  0  0  0
  143.9770  158.3950  133.9320 C   0  0  0  0  0  0  0  0  0  0  0  0
  138.1814  149.7724  130.2512 H   0  0  0  0  0  0  0  0  0  0  0  0
  139.3446  149.2453  128.9879 H   0  0  0  0  0  0  0  0  0  0  0  0
  137.6669  148.6036  128.9879 H   0  0  0  0  0  0  0  0  0  0  0  0
  139.2529  145.7290  130.3098 H   0  0  0  0  0  0  0  0  0  0  0  0
  138.2323  146.4546  129.0220 H   0  0  0  0  0  0  0  0  0  0  0  0
  140.0076  146.7284  129.0220 H   0  0  0  0  0  0  0  0  0  0  0  0
  140.1146  147.7678  132.2351 H   0  0  0  0  0  0  0  0  0  0  0  0
  141.0232  147.6392  130.6779 H   0  0  0  0  0  0  0  0  0  0  0  0
  141.4564  149.8393  130.8336 H   0  0  0  0  0  0  0  0  0  0  0  0
  139.6790  150.1217  130.5786 H   0  0  0  0  0  0  0  0  0  0  0  0
  139.5290  151.0104  132.6179 H   0  0  0  0  0  0  0  0  0  0  0  0
  140.0778  149.4310  133.3209 H   0  0  0  0  0  0  0  0  0  0  0  0
  143.5021  150.0624  133.3926 H   0  0  0  0  0  0  0  0  0  0  0  0
  142.6515  149.4453  131.9358 H   0  0  0  0  0  0  0  0  0  0  0  0
  143.3464  151.1017  131.9358 H   0  0  0  0  0  0  0  0  0  0  0  0
  144.3751  155.4289  132.8045 H   0  0  0  0  0  0  0  0  0  0  0  0
  142.6856  155.6727  132.2279 H   0  0  0  0  0  0  0  0  0  0  0  0
  140.6670  155.7670  134.9000 H   0  0  0  0  0  0  0  0  0  0  0  0
  141.5589  160.5826  134.3579 H   0  0  0  0  0  0  0  0  0  0  0  0
  144.0694  161.7995  133.7256 H   0  0  0  0  0  0  0  0  0  0  0  0
  146.4856  161.2738  133.2507 H   0  0  0  0  0  0  0  0  0  0  0  0
  147.7721  157.7702  132.8396 H   0  0  0  0  0  0  0  0  0  0  0  0
  145.6503  157.0195  133.7058 H   0  0  0  0  0  0  0  0  0  0  0  0
  1  2  1  0
  2  3  1  0
  2  4  1  0
  4  5  1  0
  5  6  1  0
  6  7  1  0
  7  8  1  0
  7  9  1  0
  9 10  2  0
  9 11  1  0
 11 12  2  0
 11 13  1  0
 13 14  1  0
 14 15  1  0
 15 16  2  0
 15 17  1  0
 17 18  1  0
 18 19  1  0
 19 20  1  0
 19 21  2  0
 18 22  2  0
 22 23  1  0
 23 24  2  0
 24 25  1  0
 25 26  2  0
 26 27  1  0
 27 28  1  0
 27 29  1  0
 26 30  1  0
 30 31  2  0
 31 17  1  0
 31 23  1  0
  1 32  1  0
  1 33  1  0
  1 34  1  0
  3 35  1  0
  3 36  1  0
  3 37  1  0
  4 38  1  0
  4 39  1  0
  5 40  1  0
  5 41  1  0
  6 42  1  0
  6 43  1  0
  8 44  1  0
  8 45  1  0
  8 46  1  0
 14 47  1  0
 14 48  1  0
 20 49  1  0
 22 50  1  0
 24 51  1  0
 25 52  1  0
 27 53  1  0
 30 54  1  0
M  CHG  2  13  -1  20  -1
M  END
>  <UniqueID>  (95) 
94

>  <SMILES>  (95) 
CN(C)CCCN(C)C(=O)C(=O)[N-]CC(=O)n1c(C([NH-])=O)cc2ccc(C(F)F)cc21

>  <Energy>  (95) 
86.47813875419065

>  <Genealogy>  (95) 
CN(C)CCCN(C)C(=O)C(=O)[N-]CC(=O)n1c(C([NH-])=O)cc2ccc(C(F)F)cc21 (protonated)
CN(C)CCCN(C)C(=O)C(=O)[N-]CC(=O)n1c(C([NH-])=O)cc2ccc(C(F)F)cc21 (3D coordinates assigned)
CN(C)CCCN(C)C(=O)C(=O)[N-]CC(=O)n1c(C([NH-])=O)cc2ccc(C(F)F)cc21 (optimized conformer: 86.47813875419065 kcal/mol)

>  <smiles>  (95) 
CN(C)CCCN(C)C(=O)C(=O)NCC(=O)n1c(C(N)=O)cc2ccc(C(F)F)cc21

>  <score_type>  (95) 
oracle

>  <origin>  (95) 
adg

>  <m_score__min__energy>  (95) 
-7.7000000000000002

>  <m_primary>  (95) 
energy

$$$$
95:0
     RDKit          3D

 48 50  0  0  0  0  0  0  0  0999 V2000
  149.2330  161.5940  130.3690 C   0  0  0  0  0  0  0  0  0  0  0  0
  148.7440  161.0210  131.5620 O   0  0  0  0  0  0  0  0  0  0  0  0
  149.3980  159.7860  131.7880 C   0  0  0  0  0  0  0  0  0  0  0  0
  148.8910  159.1300  133.0630 C   0  0  0  0  0  0  0  0  0  0  0  0
  148.2290  158.0380  132.3350 N   0  0  0  0  0  0  0  0  0  0  0  0
  148.8420  156.7280  132.6380 C   0  0  0  0  0  0  0  0  0  0  0  0
  147.7690  155.6520  132.8170 C   0  0  0  0  0  0  0  0  0  0  0  0
  146.6000  156.0140  132.1080 O   0  0  0  0  0  0  0  0  0  0  0  0
  145.4960  156.0060  132.9900 C   0  0  0  0  0  0  0  0  0  0  0  0
  145.3100  157.3720  133.5830 C   0  0  0  0  0  0  0  0  0  0  0  0
  146.2790  157.9060  134.1920 O   0  0  0  0  0  0  0  0  0  0  0  0
  144.0560  158.0760  133.4680 N   0  0  0  0  0  0  0  0  0  0  0  0
  143.8550  159.4240  133.4340 C   0  0  0  0  0  0  0  0  0  0  0  0
  144.9160  160.4420  133.3640 C   0  0  0  0  0  0  0  0  0  0  0  0
  146.1850  160.1220  132.7960 N   0  0  0  0  0  0  0  0  0  0  0  0
  144.6930  161.6080  133.7940 O   0  0  0  0  0  0  0  0  0  0  0  0
  142.4990  159.7260  133.3800 C   0  0  0  0  0  0  0  0  0  0  0  0
  141.8600  158.5070  133.3620 C   0  0  0  0  0  0  0  0  0  0  0  0
  140.5010  158.2120  133.2990 C   0  0  0  0  0  0  0  0  0  0  0  0
  140.1180  156.8620  133.3140 C   0  0  0  0  0  0  0  0  0  0  0  0
  141.0950  155.8370  133.4050 C   0  0  0  0  0  0  0  0  0  0  0  0
  140.6600  154.4040  133.4870 C   0  0  0  0  0  0  0  0  0  0  0  0
  142.4650  156.1730  133.4780 C   0  0  0  0  0  0  0  0  0  0  0  0
  142.8200  157.5280  133.4230 C   0  0  0  0  0  0  0  0  0  0  0  0
  148.7280  158.6190  131.0790 C   0  0  0  0  0  0  0  0  0  0  0  0
  149.9293  162.4099  130.6127 H   0  0  0  0  0  0  0  0  0  0  0  0
  149.7586  160.8264  129.7821 H   0  0  0  0  0  0  0  0  0  0  0  0
  148.3923  161.9924  129.7821 H   0  0  0  0  0  0  0  0  0  0  0  0
  150.4472  160.0629  131.6075 H   0  0  0  0  0  0  0  0  0  0  0  0
  149.6975  158.7858  133.7272 H   0  0  0  0  0  0  0  0  0  0  0  0
  148.2971  159.7320  133.7665 H   0  0  0  0  0  0  0  0  0  0  0  0
  149.5057  156.4405  131.8092 H   0  0  0  0  0  0  0  0  0  0  0  0
  149.4126  156.8149  133.5744 H   0  0  0  0  0  0  0  0  0  0  0  0
  148.1465  154.6931  132.4322 H   0  0  0  0  0  0  0  0  0  0  0  0
  147.5284  155.5554  133.8860 H   0  0  0  0  0  0  0  0  0  0  0  0
  144.5887  155.7212  132.4371 H   0  0  0  0  0  0  0  0  0  0  0  0
  145.6807  155.2815  133.7969 H   0  0  0  0  0  0  0  0  0  0  0  0
  146.9460  160.8380  132.7850 H   0  0  0  0  0  0  0  0  0  0  0  0
  146.3660  159.1730  132.3980 H   0  0  0  0  0  0  0  0  0  0  0  0
  142.0366  160.7238  133.3567 H   0  0  0  0  0  0  0  0  0  0  0  0
  139.7497  159.0132  133.2392 H   0  0  0  0  0  0  0  0  0  0  0  0
  139.0522  156.5964  133.2547 H   0  0  0  0  0  0  0  0  0  0  0  0
  140.5701  154.1079  134.5426 H   0  0  0  0  0  0  0  0  0  0  0  0
  139.6860  154.2874  132.9893 H   0  0  0  0  0  0  0  0  0  0  0  0
  141.4048  153.7657  132.9893 H   0  0  0  0  0  0  0  0  0  0  0  0
  143.2333  155.3918  133.5755 H   0  0  0  0  0  0  0  0  0  0  0  0
  149.4360  157.9666  130.5470 H   0  0  0  0  0  0  0  0  0  0  0  0
  148.0102  158.8318  130.2731 H   0  0  0  0  0  0  0  0  0  0  0  0
  1  2  1  0
  2  3  1  0
  3  4  1  0
  4  5  1  0
  5  6  1  0
  6  7  1  0
  7  8  1  0
  8  9  1  0
  9 10  1  0
 10 11  2  0
 10 12  1  0
 12 13  1  0
 13 14  1  0
 14 15  1  0
 14 16  2  0
 13 17  2  0
 17 18  1  0
 18 19  2  0
 19 20  1  0
 20 21  2  0
 21 22  1  0
 21 23  1  0
 23 24  2  0
  5 25  1  0
 25  3  1  0
 24 12  1  0
 24 18  1  0
  1 26  1  0
  1 27  1  0
  1 28  1  0
  3 29  1  0
  4 30  1  0
  4 31  1  0
  6 32  1  0
  6 33  1  0
  7 34  1  0
  7 35  1  0
  9 36  1  0
  9 37  1  0
 15 38  1  0
 15 39  1  0
 17 40  1  0
 19 41  1  0
 20 42  1  0
 22 43  1  0
 22 44  1  0
 22 45  1  0
 23 46  1  0
 25 47  1  0
 25 48  1  0
M  END
>  <UniqueID>  (96) 
95

>  <SMILES>  (96) 
COC1CN(CCOCC(=O)n2c(C(N)=O)cc3ccc(C)cc32)C1

>  <Energy>  (96) 
159.2191353230859

>  <Genealogy>  (96) 
COC1CN(CCOCC(=O)n2c(C(N)=O)cc3ccc(C)cc32)C1 (3D coordinates assigned)
COC1CN(CCOCC(=O)n2c(C(N)=O)cc3ccc(C)cc32)C1 (nonaromatic ring conformer: 159.2191353230859 kcal/mol)

>  <smiles>  (96) 
COC1CN(CCOCC(=O)n2c(C(N)=O)cc3ccc(C)cc32)C1

>  <score_type>  (96) 
oracle

>  <origin>  (96) 
adg

>  <m_score__min__energy>  (96) 
-8.0999999999999996

>  <m_primary>  (96) 
energy

$$$$
96:0
     RDKit          3D

 49 50  0  0  0  0  0  0  0  0999 V2000
  149.6140  153.9660  132.2910 C   0  0  0  0  0  0  0  0  0  0  0  0
  148.1460  154.0930  132.6880 C   0  0  0  0  0  0  0  0  0  0  0  0
  147.7820  155.5320  132.9280 C   0  0  0  0  0  0  0  0  0  0  0  0
  148.7920  156.5250  132.9630 C   0  0  0  0  0  0  0  0  0  0  0  0
  148.4610  157.8780  133.1420 C   0  0  0  0  0  0  0  0  0  0  0  0
  147.1160  158.2090  133.2780 C   0  0  0  0  0  0  0  0  0  0  0  0
  146.5180  159.4390  133.4260 C   0  0  0  0  0  0  0  0  0  0  0  0
  145.1520  159.1780  133.4960 C   0  0  0  0  0  0  0  0  0  0  0  0
  144.1340  160.2230  133.7230 C   0  0  0  0  0  0  0  0  0  0  0  0
  142.8330  160.1300  133.1400 N   0  0  0  0  0  0  0  0  0  0  0  0
  144.3990  161.1880  134.4890 O   0  0  0  0  0  0  0  0  0  0  0  0
  144.9110  157.8420  133.3780 N   0  0  0  0  0  0  0  0  0  0  0  0
  143.6350  157.1890  133.2990 C   0  0  0  0  0  0  0  0  0  0  0  0
  142.8480  157.4590  132.3520 O   0  0  0  0  0  0  0  0  0  0  0  0
  143.2640  156.2650  134.2810 O   0  0  0  0  0  0  0  0  0  0  0  0
  142.4820  156.6240  135.4160 C   0  0  0  0  0  0  0  0  0  0  0  0
  141.1650  156.0940  135.2880 O   0  0  0  0  0  0  0  0  0  0  0  0
  140.3380  156.3700  134.1920 C   0  0  0  0  0  0  0  0  0  0  0  0
  140.2140  155.5220  133.2650 O   0  0  0  0  0  0  0  0  0  0  0  0
  139.6370  157.6250  134.1230 N   0  0  0  0  0  0  0  0  0  0  0  0
  139.8720  158.6290  135.1630 C   0  0  0  0  0  0  0  0  0  0  0  0
  138.7230  157.9110  133.0070 C   0  0  0  0  0  0  0  0  0  0  0  0
  139.4470  158.6650  131.8730 C   0  0  2  0  0  0  0  0  0  0  0  0
  140.7900  158.2580  131.7900 O   0  0  0  0  0  0  0  0  0  0  0  0
  139.3710  160.1550  132.0600 C   0  0  0  0  0  0  0  0  0  0  0  0
  140.2830  160.7620  132.6820 O   0  0  0  0  0  0  0  0  0  0  0  0
  138.2780  160.8700  131.5810 O   0  0  0  0  0  0  0  0  0  0  0  0
  146.1240  157.2600  133.2510 C   0  0  0  0  0  0  0  0  0  0  0  0
  146.4250  155.9070  133.0560 C   0  0  0  0  0  0  0  0  0  0  0  0
  150.2355  153.9122  133.1970 H   0  0  0  0  0  0  0  0  0  0  0  0
  149.7549  153.0523  131.6949 H   0  0  0  0  0  0  0  0  0  0  0  0
  149.9097  154.8419  131.6949 H   0  0  0  0  0  0  0  0  0  0  0  0
  147.5174  153.6917  131.8794 H   0  0  0  0  0  0  0  0  0  0  0  0
  147.9810  153.5272  133.6168 H   0  0  0  0  0  0  0  0  0  0  0  0
  149.8464  156.2331  132.8488 H   0  0  0  0  0  0  0  0  0  0  0  0
  149.2412  158.6528  133.1738 H   0  0  0  0  0  0  0  0  0  0  0  0
  147.0134  160.4198  133.4780 H   0  0  0  0  0  0  0  0  0  0  0  0
  142.5200  159.2610  132.6530 H   0  0  0  0  0  0  0  0  0  0  0  0
  142.1440  160.9040  133.2700 H   0  0  0  0  0  0  0  0  0  0  0  0
  142.9511  156.2185  136.3246 H   0  0  0  0  0  0  0  0  0  0  0  0
  142.4250  157.7205  135.4831 H   0  0  0  0  0  0  0  0  0  0  0  0
  139.7630  158.1633  136.1536 H   0  0  0  0  0  0  0  0  0  0  0  0
  140.8893  159.0342  135.0583 H   0  0  0  0  0  0  0  0  0  0  0  0
  139.1402  159.4436  135.0583 H   0  0  0  0  0  0  0  0  0  0  0  0
  138.3296  156.9623  132.6131 H   0  0  0  0  0  0  0  0  0  0  0  0
  137.9050  158.5447  133.3801 H   0  0  0  0  0  0  0  0  0  0  0  0
  138.9352  158.4151  130.9319 H   0  0  0  0  0  0  0  0  0  0  0  0
  141.3560  159.0730  131.8450 H   0  0  0  0  0  0  0  0  0  0  0  0
  145.6251  155.1538  133.0036 H   0  0  0  0  0  0  0  0  0  0  0  0
  1  2  1  0
  2  3  1  0
  3  4  2  0
  4  5  1  0
  5  6  2  0
  6  7  1  0
  7  8  2  0
  8  9  1  0
  9 10  1  0
  9 11  2  0
  8 12  1  0
 12 13  1  0
 13 14  2  0
 13 15  1  0
 15 16  1  0
 16 17  1  0
 17 18  1  0
 18 19  2  0
 18 20  1  0
 20 21  1  0
 20 22  1  0
 22 23  1  0
 23 24  1  0
 23 25  1  0
 25 26  2  0
 25 27  1  0
 12 28  1  0
 28 29  2  0
 29  3  1  0
 28  6  1  0
  1 30  1  0
  1 31  1  0
  1 32  1  0
  2 33  1  0
  2 34  1  0
  4 35  1  0
  5 36  1  0
  7 37  1  0
 10 38  1  0
 10 39  1  0
 16 40  1  0
 16 41  1  0
 21 42  1  0
 21 43  1  0
 21 44  1  0
 22 45  1  0
 22 46  1  0
 23 47  1  6
 24 48  1  0
 29 49  1  0
M  CHG  1  27  -1
M  END
>  <UniqueID>  (97) 
96

>  <SMILES>  (97) 
CCc1ccc2cc(C(N)=O)n(C(=O)OCOC(=O)N(C)C[C@H](O)C(=O)[O-])c2c1

>  <Energy>  (97) 
75.84779775897157

>  <Genealogy>  (97) 
CCc1ccc2cc(C(N)=O)n(C(=O)OCOC(=O)N(C)C[C@H](O)C(=O)[O-])c2c1 (protonated)
CCc1ccc2cc(C(N)=O)n(C(=O)OCOC(=O)N(C)C[C@H](O)C(=O)[O-])c2c1 (3D coordinates assigned)
CCc1ccc2cc(C(N)=O)n(C(=O)OCOC(=O)N(C)C[C@H](O)C(=O)[O-])c2c1 (optimized conformer: 75.84779775897157 kcal/mol)

>  <smiles>  (97) 
CCc1ccc2cc(C(N)=O)n(C(=O)OCOC(=O)N(C)C[C@H](O)C(=O)O)c2c1

>  <score_type>  (97) 
oracle

>  <origin>  (97) 
adg

>  <m_score__min__energy>  (97) 
-6.46

>  <m_primary>  (97) 
energy

$$$$
97:0
     RDKit          3D

 45 46  0  0  0  0  0  0  0  0999 V2000
  149.5990  151.0660  135.9920 C   0  0  0  0  0  0  0  0  0  0  0  0
  148.8340  152.2490  135.9510 O   0  0  0  0  0  0  0  0  0  0  0  0
  148.7900  152.8220  137.2400 C   0  0  0  0  0  0  0  0  0  0  0  0
  147.4710  153.5770  137.4070 C   0  0  0  0  0  0  0  0  0  0  0  0
  146.6050  153.3270  136.3170 O   0  0  0  0  0  0  0  0  0  0  0  0
  145.4260  154.1070  136.3910 C   0  0  0  0  0  0  0  0  0  0  0  0
  145.4650  155.0880  135.3610 O   0  0  0  0  0  0  0  0  0  0  0  0
  145.9500  154.8220  134.0770 C   0  0  0  0  0  0  0  0  0  0  0  0
  145.5250  153.8260  133.4290 O   0  0  0  0  0  0  0  0  0  0  0  0
  146.9470  155.6810  133.5020 N   0  0  0  0  0  0  0  0  0  0  0  0
  148.1910  155.3370  133.0610 C   0  0  0  0  0  0  0  0  0  0  0  0
  148.7180  153.9580  132.9650 C   0  0  0  0  0  0  0  0  0  0  0  0
  148.1710  152.9100  133.7670 N   0  0  0  0  0  0  0  0  0  0  0  0
  149.6770  153.6990  132.1900 O   0  0  0  0  0  0  0  0  0  0  0  0
  148.8790  156.4670  132.6190 C   0  0  0  0  0  0  0  0  0  0  0  0
  148.0100  157.5170  132.8040 C   0  0  0  0  0  0  0  0  0  0  0  0
  148.1800  158.8710  132.5430 C   0  0  0  0  0  0  0  0  0  0  0  0
  147.1260  159.7430  132.8590 C   0  0  0  0  0  0  0  0  0  0  0  0
  145.9170  159.2590  133.4390 C   0  0  0  0  0  0  0  0  0  0  0  0
  144.8380  160.1710  133.7790 N   0  0  0  0  0  0  0  0  0  0  0  0
  145.1220  161.5710  134.1220 C   0  0  0  0  0  0  0  0  0  0  0  0
  143.4450  159.7080  133.7940 C   0  0  0  0  0  0  0  0  0  0  0  0
  145.7920  157.8650  133.6840 C   0  0  0  0  0  0  0  0  0  0  0  0
  146.8540  157.0200  133.3380 C   0  0  0  0  0  0  0  0  0  0  0  0
  149.7816  150.7836  137.0393 H   0  0  0  0  0  0  0  0  0  0  0  0
  149.0520  150.2579  135.4843 H   0  0  0  0  0  0  0  0  0  0  0  0
  150.5604  151.2333  135.4843 H   0  0  0  0  0  0  0  0  0  0  0  0
  148.8587  152.0283  137.9985 H   0  0  0  0  0  0  0  0  0  0  0  0
  149.6333  153.5170  137.3656 H   0  0  0  0  0  0  0  0  0  0  0  0
  146.9835  153.2490  138.3369 H   0  0  0  0  0  0  0  0  0  0  0  0
  147.6855  154.6552  137.4454 H   0  0  0  0  0  0  0  0  0  0  0  0
  144.5456  153.4617  136.2549 H   0  0  0  0  0  0  0  0  0  0  0  0
  145.3605  154.5966  137.3739 H   0  0  0  0  0  0  0  0  0  0  0  0
  147.3420  153.0700  134.3800 H   0  0  0  0  0  0  0  0  0  0  0  0
  148.5750  151.9480  133.7170 H   0  0  0  0  0  0  0  0  0  0  0  0
  149.8991  156.5094  132.2097 H   0  0  0  0  0  0  0  0  0  0  0  0
  149.1138  159.2490  132.1013 H   0  0  0  0  0  0  0  0  0  0  0  0
  147.2350  160.8185  132.6555 H   0  0  0  0  0  0  0  0  0  0  0  0
  145.1447  161.6831  135.2160 H   0  0  0  0  0  0  0  0  0  0  0  0
  146.0972  161.8605  133.7034 H   0  0  0  0  0  0  0  0  0  0  0  0
  144.3367  162.2176  133.7034 H   0  0  0  0  0  0  0  0  0  0  0  0
  143.1071  159.5957  134.8348 H   0  0  0  0  0  0  0  0  0  0  0  0
  142.8088  160.4430  133.2792 H   0  0  0  0  0  0  0  0  0  0  0  0
  143.3753  158.7384  133.2792 H   0  0  0  0  0  0  0  0  0  0  0  0
  144.8769  157.4565  134.1376 H   0  0  0  0  0  0  0  0  0  0  0  0
  1  2  1  0
  2  3  1  0
  3  4  1  0
  4  5  1  0
  5  6  1  0
  6  7  1  0
  7  8  1  0
  8  9  2  0
  8 10  1  0
 10 11  1  0
 11 12  1  0
 12 13  1  0
 12 14  2  0
 11 15  2  0
 15 16  1  0
 16 17  2  0
 17 18  1  0
 18 19  2  0
 19 20  1  0
 20 21  1  0
 20 22  1  0
 19 23  1  0
 23 24  2  0
 24 10  1  0
 24 16  1  0
  1 25  1  0
  1 26  1  0
  1 27  1  0
  3 28  1  0
  3 29  1  0
  4 30  1  0
  4 31  1  0
  6 32  1  0
  6 33  1  0
 13 34  1  0
 13 35  1  0
 15 36  1  0
 17 37  1  0
 18 38  1  0
 21 39  1  0
 21 40  1  0
 21 41  1  0
 22 42  1  0
 22 43  1  0
 22 44  1  0
 23 45  1  0
M  END
>  <UniqueID>  (98) 
97

>  <SMILES>  (98) 
COCCOCOC(=O)n1c(C(N)=O)cc2ccc(N(C)C)cc21

>  <Energy>  (98) 
83.55321672115372

>  <Genealogy>  (98) 
COCCOCOC(=O)n1c(C(N)=O)cc2ccc(N(C)C)cc21 (3D coordinates assigned)
COCCOCOC(=O)n1c(C(N)=O)cc2ccc(N(C)C)cc21 (optimized conformer: 83.55321672115372 kcal/mol)

>  <smiles>  (98) 
COCCOCOC(=O)n1c(C(N)=O)cc2ccc(N(C)C)cc21

>  <score_type>  (98) 
oracle

>  <origin>  (98) 
adg

>  <m_score__min__energy>  (98) 
-6.1699999999999999

>  <m_primary>  (98) 
energy

$$$$
98:0
     RDKit          3D

 42 43  0  0  0  0  0  0  0  0999 V2000
  139.4920  157.0680  133.8090 C   0  0  0  0  0  0  0  0  0  0  0  0
  139.2670  158.2990  134.4540 O   0  0  0  0  0  0  0  0  0  0  0  0
  140.2360  158.4310  135.4030 N   0  0  0  0  0  0  0  0  0  0  0  0
  140.0090  157.8280  136.7160 C   0  0  0  0  0  0  0  0  0  0  0  0
  141.5060  159.0030  135.0270 C   0  0  0  0  0  0  0  0  0  0  0  0
  142.4550  158.9860  135.8580 O   0  0  0  0  0  0  0  0  0  0  0  0
  141.7630  159.5720  133.6540 C   0  0  0  0  0  0  0  0  0  0  0  0
  143.0220  160.4470  133.6200 C   0  0  0  0  0  0  0  0  0  0  0  0
  144.1880  159.6970  133.1610 N   0  0  0  0  0  0  0  0  0  0  0  0
  145.5340  160.0020  133.5400 C   0  0  0  0  0  0  0  0  0  0  0  0
  145.7940  161.0900  134.1210 O   0  0  0  0  0  0  0  0  0  0  0  0
  146.6000  159.0950  133.2110 N   0  0  0  0  0  0  0  0  0  0  0  0
  146.6940  157.7650  133.5070 C   0  0  0  0  0  0  0  0  0  0  0  0
  145.7820  157.0020  134.3820 C   0  0  0  0  0  0  0  0  0  0  0  0
  144.3720  157.1700  134.2570 N   0  0  0  0  0  0  0  0  0  0  0  0
  146.2310  156.1730  135.2160 O   0  0  0  0  0  0  0  0  0  0  0  0
  147.8320  157.2140  132.9220 C   0  0  0  0  0  0  0  0  0  0  0  0
  148.4420  158.2520  132.2590 C   0  0  0  0  0  0  0  0  0  0  0  0
  149.5990  158.2610  131.4830 C   0  0  0  0  0  0  0  0  0  0  0  0
  149.9740  159.4720  130.8760 C   0  0  0  0  0  0  0  0  0  0  0  0
  149.1960  160.6410  131.0570 C   0  0  0  0  0  0  0  0  0  0  0  0
  149.5720  161.9100  130.3530 C   0  0  0  0  0  0  0  0  0  0  0  0
  148.0220  160.5910  131.8400 C   0  0  0  0  0  0  0  0  0  0  0  0
  147.6790  159.3760  132.4470 C   0  0  0  0  0  0  0  0  0  0  0  0
  139.6360  156.2800  134.5629 H   0  0  0  0  0  0  0  0  0  0  0  0
  138.6244  156.8196  133.1801 H   0  0  0  0  0  0  0  0  0  0  0  0
  140.3914  157.1426  133.1801 H   0  0  0  0  0  0  0  0  0  0  0  0
  140.2801  158.5482  137.5020 H   0  0  0  0  0  0  0  0  0  0  0  0
  138.9475  157.5576  136.8167 H   0  0  0  0  0  0  0  0  0  0  0  0
  140.6287  156.9247  136.8167 H   0  0  0  0  0  0  0  0  0  0  0  0
  141.8885  158.7417  132.9435 H   0  0  0  0  0  0  0  0  0  0  0  0
  140.9039  160.2028  133.3819 H   0  0  0  0  0  0  0  0  0  0  0  0
  142.8504  161.2924  132.9374 H   0  0  0  0  0  0  0  0  0  0  0  0
  143.2220  160.8005  134.6423 H   0  0  0  0  0  0  0  0  0  0  0  0
  143.9080  158.0590  134.5490 H   0  0  0  0  0  0  0  0  0  0  0  0
  148.1708  156.1690  132.9787 H   0  0  0  0  0  0  0  0  0  0  0  0
  150.1999  157.3494  131.3496 H   0  0  0  0  0  0  0  0  0  0  0  0
  150.8806  159.5119  130.2544 H   0  0  0  0  0  0  0  0  0  0  0  0
  149.8023  162.6873  131.0964 H   0  0  0  0  0  0  0  0  0  0  0  0
  150.4559  161.7317  129.7230 H   0  0  0  0  0  0  0  0  0  0  0  0
  148.7337  162.2421  129.7230 H   0  0  0  0  0  0  0  0  0  0  0  0
  147.3926  161.4837  131.9700 H   0  0  0  0  0  0  0  0  0  0  0  0
  1  2  1  0
  2  3  1  0
  3  4  1  0
  3  5  1  0
  5  6  2  0
  5  7  1  0
  7  8  1  0
  8  9  1  0
  9 10  1  0
 10 11  2  0
 10 12  1  0
 12 13  1  0
 13 14  1  0
 14 15  1  0
 14 16  2  0
 13 17  2  0
 17 18  1  0
 18 19  2  0
 19 20  1  0
 20 21  2  0
 21 22  1  0
 21 23  1  0
 23 24  2  0
 24 12  1  0
 24 18  1  0
  1 25  1  0
  1 26  1  0
  1 27  1  0
  4 28  1  0
  4 29  1  0
  4 30  1  0
  7 31  1  0
  7 32  1  0
  8 33  1  0
  8 34  1  0
 15 35  1  0
 17 36  1  0
 19 37  1  0
 20 38  1  0
 22 39  1  0
 22 40  1  0
 22 41  1  0
 23 42  1  0
M  CHG  2   9  -1  15  -1
M  END
>  <UniqueID>  (99) 
98

>  <SMILES>  (99) 
CON(C)C(=O)CC[N-]C(=O)n1c(C([NH-])=O)cc2ccc(C)cc21

>  <Energy>  (99) 
72.9004086034859

>  <Genealogy>  (99) 
CON(C)C(=O)CC[N-]C(=O)n1c(C([NH-])=O)cc2ccc(C)cc21 (protonated)
CON(C)C(=O)CC[N-]C(=O)n1c(C([NH-])=O)cc2ccc(C)cc21 (3D coordinates assigned)
CON(C)C(=O)CC[N-]C(=O)n1c(C([NH-])=O)cc2ccc(C)cc21 (optimized conformer: 72.9004086034859 kcal/mol)

>  <smiles>  (99) 
CON(C)C(=O)CCNC(=O)n1c(C(N)=O)cc2ccc(C)cc21

>  <score_type>  (99) 
oracle

>  <origin>  (99) 
adg

>  <m_score__min__energy>  (99) 
-6.8600000000000003

>  <m_primary>  (99) 
energy

$$$$
