0:0
     RDKit          3D

 51 53  0  0  0  0  0  0  0  0999 V2000
  139.6910  158.5630  133.1160 C   0  0  0  0  0  0  0  0  0  0  0  0
  140.1340  158.0760  134.4700 C   0  0  0  0  0  0  0  0  0  0  0  0
  140.1660  158.9870  135.5410 C   0  0  0  0  0  0  0  0  0  0  0  0
  140.6000  158.5840  136.8050 C   0  0  0  0  0  0  0  0  0  0  0  0
  141.0010  157.2670  137.0190 C   0  0  0  0  0  0  0  0  0  0  0  0
  140.9660  156.3450  135.9720 C   0  0  0  0  0  0  0  0  0  0  0  0
  140.5320  156.7310  134.6900 C   0  0  0  0  0  0  0  0  0  0  0  0
  140.5420  155.7180  133.6060 C   0  0  0  0  0  0  0  0  0  0  0  0
  139.4910  155.4920  132.9480 O   0  0  0  0  0  0  0  0  0  0  0  0
  141.7320  154.9610  133.3120 N   0  0  0  0  0  0  0  0  0  0  0  0
  143.0170  155.4120  133.3140 C   0  0  0  0  0  0  0  0  0  0  0  0
  143.4360  156.8230  133.4380 C   0  0  0  0  0  0  0  0  0  0  0  0
  142.9960  157.8120  132.5060 N   0  0  0  0  0  0  0  0  0  0  0  0
  144.2370  157.1520  134.3530 O   0  0  0  0  0  0  0  0  0  0  0  0
  143.9110  154.3570  133.1460 C   0  0  0  0  0  0  0  0  0  0  0  0
  143.1250  153.2320  133.0310 C   0  0  0  0  0  0  0  0  0  0  0  0
  143.4910  151.9000  132.8730 C   0  0  0  0  0  0  0  0  0  0  0  0
  142.4670  150.9380  132.8230 C   0  0  0  0  0  0  0  0  0  0  0  0
  141.1060  151.3190  132.9290 C   0  0  0  0  0  0  0  0  0  0  0  0
  140.0880  150.3030  132.8730 N   0  0  0  0  0  0  0  0  0  0  0  0
  140.3580  148.8690  132.7520 C   0  0  0  0  0  0  0  0  0  0  0  0
  140.4720  148.4480  131.2840 C   0  0  0  0  0  0  0  0  0  0  0  0
  139.1330  148.1630  130.7210 N   0  0  0  0  0  0  0  0  0  0  0  0
  138.6850  149.2510  129.8370 C   0  0  0  0  0  0  0  0  0  0  0  0
  139.1220  146.8890  129.9820 C   0  0  0  0  0  0  0  0  0  0  0  0
  140.7800  152.6830  133.1150 C   0  0  0  0  0  0  0  0  0  0  0  0
  141.8160  153.6220  133.1370 C   0  0  0  0  0  0  0  0  0  0  0  0
  138.9555  159.3715  133.2397 H   0  0  0  0  0  0  0  0  0  0  0  0
  140.5613  158.9410  132.5595 H   0  0  0  0  0  0  0  0  0  0  0  0
  139.2325  157.7323  132.5595 H   0  0  0  0  0  0  0  0  0  0  0  0
  139.8459  160.0272  135.3810 H   0  0  0  0  0  0  0  0  0  0  0  0
  140.6255  159.3073  137.6333 H   0  0  0  0  0  0  0  0  0  0  0  0
  141.3459  156.9533  138.0153 H   0  0  0  0  0  0  0  0  0  0  0  0
  141.2808  155.3062  136.1505 H   0  0  0  0  0  0  0  0  0  0  0  0
  142.4830  157.5450  131.6370 H   0  0  0  0  0  0  0  0  0  0  0  0
  143.2650  158.8110  132.6380 H   0  0  0  0  0  0  0  0  0  0  0  0
  145.0092  154.4109  133.1124 H   0  0  0  0  0  0  0  0  0  0  0  0
  144.5483  151.6081  132.7898 H   0  0  0  0  0  0  0  0  0  0  0  0
  142.7254  149.8759  132.7000 H   0  0  0  0  0  0  0  0  0  0  0  0
  139.0910  150.5910  133.0030 H   0  0  0  0  0  0  0  0  0  0  0  0
  141.3025  148.6373  133.2659 H   0  0  0  0  0  0  0  0  0  0  0  0
  139.5224  148.3179  133.2081 H   0  0  0  0  0  0  0  0  0  0  0  0
  140.9407  149.2607  130.7097 H   0  0  0  0  0  0  0  0  0  0  0  0
  141.0854  147.5370  131.2217 H   0  0  0  0  0  0  0  0  0  0  0  0
  138.3362  150.0981  130.4459 H   0  0  0  0  0  0  0  0  0  0  0  0
  139.5225  149.5760  129.2022 H   0  0  0  0  0  0  0  0  0  0  0  0
  137.8615  148.8921  129.2022 H   0  0  0  0  0  0  0  0  0  0  0  0
  139.1148  146.0515  130.6951 H   0  0  0  0  0  0  0  0  0  0  0  0
  138.2234  146.8398  129.3495 H   0  0  0  0  0  0  0  0  0  0  0  0
  140.0196  146.8243  129.3495 H   0  0  0  0  0  0  0  0  0  0  0  0
  139.7336  152.9983  133.2397 H   0  0  0  0  0  0  0  0  0  0  0  0
  1  2  1  0
  2  3  2  0
  3  4  1  0
  4  5  2  0
  5  6  1  0
  6  7  2  0
  7  8  1  0
  8  9  2  0
  8 10  1  0
 10 11  1  0
 11 12  1  0
 12 13  1  0
 12 14  2  0
 11 15  2  0
 15 16  1  0
 16 17  2  0
 17 18  1  0
 18 19  2  0
 19 20  1  0
 20 21  1  0
 21 22  1  0
 22 23  1  0
 23 24  1  0
 23 25  1  0
 19 26  1  0
 26 27  2  0
  7  2  1  0
 27 10  1  0
 27 16  1  0
  1 28  1  0
  1 29  1  0
  1 30  1  0
  3 31  1  0
  4 32  1  0
  5 33  1  0
  6 34  1  0
 13 35  1  0
 13 36  1  0
 15 37  1  0
 17 38  1  0
 18 39  1  0
 20 40  1  0
 21 41  1  0
 21 42  1  0
 22 43  1  0
 22 44  1  0
 24 45  1  0
 24 46  1  0
 24 47  1  0
 25 48  1  0
 25 49  1  0
 25 50  1  0
 26 51  1  0
M  END
>  <UniqueID>  (1) 
1

>  <SMILES>  (1) 
Cc1ccccc1C(=O)n1c(C(N)=O)cc2ccc(NCCN(C)C)cc21

>  <Energy>  (1) 
94.53969507336652

>  <Genealogy>  (1) 
Cc1ccccc1C(=O)n1c(C(N)=O)cc2ccc(NCCN(C)C)cc21 (3D coordinates assigned)
Cc1ccccc1C(=O)n1c(C(N)=O)cc2ccc(NCCN(C)C)cc21 (optimized conformer: 94.53969507336652 kcal/mol)

>  <smiles>  (1) 
Cc1ccccc1C(=O)n1c(C(N)=O)cc2ccc(NCCN(C)C)cc21

>  <score_type>  (1) 
oracle

>  <origin>  (1) 
adg

>  <m_score__min__energy>  (1) 
-9.2100000000000009

>  <m_primary>  (1) 
energy

$$$$
1:0
     RDKit          3D

 44 46  0  0  0  0  0  0  0  0999 V2000
  148.4820  155.8710  133.2160 C   0  0  0  0  0  0  0  0  0  0  0  0
  147.7030  157.0160  132.5550 C   0  0  2  0  0  0  0  0  0  0  0  0
  148.3330  158.3990  132.8250 C   0  0  0  0  0  0  0  0  0  0  0  0
  148.2400  159.2610  131.6220 N   0  0  0  0  0  0  0  0  0  0  0  0
  149.1450  158.8300  130.5240 C   0  0  0  0  0  0  0  0  0  0  0  0
  150.3570  159.7600  130.3640 C   0  0  0  0  0  0  0  0  0  0  0  0
  149.9460  161.1460  130.0760 N   0  0  0  0  0  0  0  0  0  0  0  0
  148.6780  161.5380  130.7230 C   0  0  0  0  0  0  0  0  0  0  0  0
  148.3760  160.6950  131.9680 C   0  0  0  0  0  0  0  0  0  0  0  0
  146.2530  156.9940  133.0010 C   0  0  0  0  0  0  0  0  0  0  0  0
  145.5510  155.7610  133.0640 C   0  0  0  0  0  0  0  0  0  0  0  0
  144.2030  155.7210  133.4570 C   0  0  0  0  0  0  0  0  0  0  0  0
  143.5830  156.9210  133.7890 C   0  0  0  0  0  0  0  0  0  0  0  0
  142.2860  157.1680  134.1750 C   0  0  0  0  0  0  0  0  0  0  0  0
  142.2140  158.5470  134.3660 C   0  0  0  0  0  0  0  0  0  0  0  0
  141.0090  159.2330  134.8740 C   0  0  0  0  0  0  0  0  0  0  0  0
  140.7440  159.3110  136.2720 N   0  0  0  0  0  0  0  0  0  0  0  0
  140.1760  159.7150  134.0600 O   0  0  0  0  0  0  0  0  0  0  0  0
  143.4170  159.1300  134.1010 N   0  0  0  0  0  0  0  0  0  0  0  0
  143.7290  160.5330  134.0880 C   0  0  0  0  0  0  0  0  0  0  0  0
  144.8590  160.9370  134.4680 O   0  0  0  0  0  0  0  0  0  0  0  0
  142.7960  161.4540  133.6280 O   0  0  0  0  0  0  0  0  0  0  0  0
  144.2460  158.1200  133.7510 C   0  0  0  0  0  0  0  0  0  0  0  0
  145.5830  158.1930  133.3460 C   0  0  0  0  0  0  0  0  0  0  0  0
  148.4168  155.9668  134.3099 H   0  0  0  0  0  0  0  0  0  0  0  0
  148.0512  154.9075  132.9060 H   0  0  0  0  0  0  0  0  0  0  0  0
  149.5364  155.9179  132.9060 H   0  0  0  0  0  0  0  0  0  0  0  0
  147.7512  156.8525  131.4683 H   0  0  0  0  0  0  0  0  0  0  0  0
  147.8004  158.8821  133.6575 H   0  0  0  0  0  0  0  0  0  0  0  0
  149.3941  158.2607  133.0799 H   0  0  0  0  0  0  0  0  0  0  0  0
  149.5059  157.8140  130.7421 H   0  0  0  0  0  0  0  0  0  0  0  0
  148.5720  158.8619  129.5856 H   0  0  0  0  0  0  0  0  0  0  0  0
  150.9413  159.7477  131.2959 H   0  0  0  0  0  0  0  0  0  0  0  0
  150.9582  159.3974  129.5171 H   0  0  0  0  0  0  0  0  0  0  0  0
  150.7050  161.7830  130.4130 H   0  0  0  0  0  0  0  0  0  0  0  0
  148.7438  162.5954  131.0190 H   0  0  0  0  0  0  0  0  0  0  0  0
  147.8658  161.3736  129.9997 H   0  0  0  0  0  0  0  0  0  0  0  0
  149.1973  160.8139  132.6900 H   0  0  0  0  0  0  0  0  0  0  0  0
  147.4262  161.0410  132.4018 H   0  0  0  0  0  0  0  0  0  0  0  0
  146.0689  154.8266  132.8020 H   0  0  0  0  0  0  0  0  0  0  0  0
  143.6540  154.7688  133.5009 H   0  0  0  0  0  0  0  0  0  0  0  0
  141.4775  156.4335  134.3053 H   0  0  0  0  0  0  0  0  0  0  0  0
  139.8550  159.7300  136.6280 H   0  0  0  0  0  0  0  0  0  0  0  0
  146.1028  159.1611  133.2965 H   0  0  0  0  0  0  0  0  0  0  0  0
  1  2  1  0
  2  3  1  0
  3  4  1  0
  4  5  1  0
  5  6  1  0
  6  7  1  0
  7  8  1  0
  8  9  1  0
  2 10  1  0
 10 11  2  0
 11 12  1  0
 12 13  2  0
 13 14  1  0
 14 15  2  0
 15 16  1  0
 16 17  1  0
 16 18  2  0
 15 19  1  0
 19 20  1  0
 20 21  2  0
 20 22  1  0
 19 23  1  0
 23 24  2  0
  9  4  1  0
 24 10  1  0
 23 13  1  0
  1 25  1  0
  1 26  1  0
  1 27  1  0
  2 28  1  6
  3 29  1  0
  3 30  1  0
  5 31  1  0
  5 32  1  0
  6 33  1  0
  6 34  1  0
  7 35  1  0
  8 36  1  0
  8 37  1  0
  9 38  1  0
  9 39  1  0
 11 40  1  0
 12 41  1  0
 14 42  1  0
 17 43  1  0
 24 44  1  0
M  CHG  2  17  -1  22  -1
M  END
>  <UniqueID>  (2) 
2

>  <SMILES>  (2) 
C[C@H](CN1CCNCC1)c1ccc2cc(C([NH-])=O)n(C(=O)[O-])c2c1

>  <Energy>  (2) 
95.19323921189158

>  <Genealogy>  (2) 
CC(CN1CCNCC1)c1ccc2cc(C([NH-])=O)n(C(=O)[O-])c2c1 (protonated)
C[C@H](CN1CCNCC1)c1ccc2cc(C([NH-])=O)n(C(=O)[O-])c2c1 (chirality)
C[C@H](CN1CCNCC1)c1ccc2cc(C([NH-])=O)n(C(=O)[O-])c2c1 (3D coordinates assigned)
C[C@H](CN1CCNCC1)c1ccc2cc(C([NH-])=O)n(C(=O)[O-])c2c1 (nonaromatic ring conformer: 95.19323921189158 kcal/mol)

>  <smiles>  (2) 
CC(CN1CCNCC1)c1ccc2cc(C(N)=O)n(C(=O)O)c2c1

>  <score_type>  (2) 
oracle

>  <origin>  (2) 
adg

>  <m_score__min__energy>  (2) 
-8.1199999999999992

>  <m_primary>  (2) 
energy

$$$$
2:0
     RDKit          3D

 38 40  0  0  0  0  0  0  0  0999 V2000
  148.8530  159.3660  134.1040 C   0  0  0  0  0  0  0  0  0  0  0  0
  148.3980  158.8510  132.7180 C   0  0  1  0  0  0  0  0  0  0  0  0
  149.0060  159.6790  131.5980 C   0  0  0  0  0  0  0  0  0  0  0  0
  148.3900  160.6610  131.1070 O   0  0  0  0  0  0  0  0  0  0  0  0
  150.2660  159.3590  131.1050 O   0  0  0  0  0  0  0  0  0  0  0  0
  148.7760  157.3640  132.5720 C   0  0  0  0  0  0  0  0  0  0  0  0
  147.5670  156.5850  133.0730 C   0  0  0  0  0  0  0  0  0  0  0  0
  146.4420  157.5040  132.9940 N   0  0  0  0  0  0  0  0  0  0  0  0
  145.0670  157.1180  133.2270 C   0  0  0  0  0  0  0  0  0  0  0  0
  144.6390  155.7850  132.9820 C   0  0  0  0  0  0  0  0  0  0  0  0
  143.3060  155.4010  133.1950 C   0  0  0  0  0  0  0  0  0  0  0  0
  142.4160  156.3620  133.6600 C   0  0  0  0  0  0  0  0  0  0  0  0
  141.0700  156.2670  133.9240 C   0  0  0  0  0  0  0  0  0  0  0  0
  140.6860  157.5360  134.3520 C   0  0  0  0  0  0  0  0  0  0  0  0
  139.3230  157.8560  134.8250 C   0  0  0  0  0  0  0  0  0  0  0  0
  139.0880  158.2390  136.1770 N   0  0  0  0  0  0  0  0  0  0  0  0
  138.3470  157.7390  134.0370 O   0  0  0  0  0  0  0  0  0  0  0  0
  141.7520  158.3850  134.3450 N   0  0  0  0  0  0  0  0  0  0  0  0
  141.7530  159.7940  134.6260 C   0  0  0  0  0  0  0  0  0  0  0  0
  141.1010  160.2490  135.6010 O   0  0  0  0  0  0  0  0  0  0  0  0
  142.4960  160.6660  133.8390 O   0  0  0  0  0  0  0  0  0  0  0  0
  142.8050  157.6490  133.9210 C   0  0  0  0  0  0  0  0  0  0  0  0
  144.1230  158.0650  133.7000 C   0  0  0  0  0  0  0  0  0  0  0  0
  146.8590  158.8550  132.6410 C   0  0  0  0  0  0  0  0  0  0  0  0
  148.3456  158.7917  134.8932 H   0  0  0  0  0  0  0  0  0  0  0  0
  149.9415  159.2416  134.2022 H   0  0  0  0  0  0  0  0  0  0  0  0
  148.5954  160.4309  134.2022 H   0  0  0  0  0  0  0  0  0  0  0  0
  148.9803  157.1210  131.5188 H   0  0  0  0  0  0  0  0  0  0  0  0
  149.6847  157.1165  133.1404 H   0  0  0  0  0  0  0  0  0  0  0  0
  147.3881  155.7052  132.4374 H   0  0  0  0  0  0  0  0  0  0  0  0
  147.7187  156.2184  134.0990 H   0  0  0  0  0  0  0  0  0  0  0  0
  145.3646  155.0420  132.6194 H   0  0  0  0  0  0  0  0  0  0  0  0
  142.9754  154.3702  132.9998 H   0  0  0  0  0  0  0  0  0  0  0  0
  140.4315  155.3774  133.8194 H   0  0  0  0  0  0  0  0  0  0  0  0
  139.4550  159.1410  136.5510 H   0  0  0  0  0  0  0  0  0  0  0  0
  144.4211  159.1067  133.8896 H   0  0  0  0  0  0  0  0  0  0  0  0
  146.5268  159.1050  131.6226 H   0  0  0  0  0  0  0  0  0  0  0  0
  146.4210  159.6043  133.3169 H   0  0  0  0  0  0  0  0  0  0  0  0
  2  1  1  1
  2  3  1  0
  3  4  2  0
  3  5  1  0
  2  6  1  0
  6  7  1  0
  7  8  1  0
  8  9  1  0
  9 10  2  0
 10 11  1  0
 11 12  2  0
 12 13  1  0
 13 14  2  0
 14 15  1  0
 15 16  1  0
 15 17  2  0
 14 18  1  0
 18 19  1  0
 19 20  2  0
 19 21  1  0
 18 22  1  0
 22 23  2  0
  8 24  1  0
 24  2  1  0
 23  9  1  0
 22 12  1  0
  1 25  1  0
  1 26  1  0
  1 27  1  0
  6 28  1  0
  6 29  1  0
  7 30  1  0
  7 31  1  0
 10 32  1  0
 11 33  1  0
 13 34  1  0
 16 35  1  0
 23 36  1  0
 24 37  1  0
 24 38  1  0
M  CHG  3   5  -1  16  -1  21  -1
M  END
>  <UniqueID>  (3) 
3

>  <SMILES>  (3) 
C[C@@]1(C(=O)[O-])CCN(c2ccc3cc(C([NH-])=O)n(C(=O)[O-])c3c2)C1

>  <Energy>  (3) 
83.70153358354733

>  <Genealogy>  (3) 
CC1(C(=O)[O-])CCN(c2ccc3cc(C([NH-])=O)n(C(=O)[O-])c3c2)C1 (protonated)
C[C@@]1(C(=O)[O-])CCN(c2ccc3cc(C([NH-])=O)n(C(=O)[O-])c3c2)C1 (chirality)
C[C@@]1(C(=O)[O-])CCN(c2ccc3cc(C([NH-])=O)n(C(=O)[O-])c3c2)C1 (3D coordinates assigned)
C[C@@]1(C(=O)[O-])CCN(c2ccc3cc(C([NH-])=O)n(C(=O)[O-])c3c2)C1 (nonaromatic ring conformer: 83.70153358354733 kcal/mol)

>  <smiles>  (3) 
CC1(C(=O)O)CCN(c2ccc3cc(C(N)=O)n(C(=O)O)c3c2)C1

>  <score_type>  (3) 
oracle

>  <origin>  (3) 
adg

>  <m_score__min__energy>  (3) 
-7.25

>  <m_primary>  (3) 
energy

$$$$
3:0
     RDKit          3D

 25 26  0  0  0  0  0  0  0  0999 V2000
  149.2620  162.0410  130.3560 C   0  0  0  0  0  0  0  0  0  0  0  0
  149.0760  160.7340  131.0670 C   0  0  0  0  0  0  0  0  0  0  0  0
  150.1190  159.7750  131.0740 C   0  0  0  0  0  0  0  0  0  0  0  0
  149.9640  158.5570  131.7550 C   0  0  0  0  0  0  0  0  0  0  0  0
  148.7710  158.3360  132.4370 C   0  0  0  0  0  0  0  0  0  0  0  0
  148.3520  157.2360  133.1500 C   0  0  0  0  0  0  0  0  0  0  0  0
  147.0790  157.5610  133.6090 C   0  0  0  0  0  0  0  0  0  0  0  0
  146.2800  156.6720  134.4760 C   0  0  0  0  0  0  0  0  0  0  0  0
  144.8520  156.7150  134.4630 N   0  0  0  0  0  0  0  0  0  0  0  0
  146.8670  155.9030  135.2830 O   0  0  0  0  0  0  0  0  0  0  0  0
  146.7150  158.8050  133.1870 N   0  0  0  0  0  0  0  0  0  0  0  0
  145.4400  159.4470  133.3570 C   0  0  0  0  0  0  0  0  0  0  0  0
  145.3370  160.4740  134.0780 O   0  0  0  0  0  0  0  0  0  0  0  0
  144.3070  158.9420  132.7320 O   0  0  0  0  0  0  0  0  0  0  0  0
  147.7660  159.2700  132.4720 C   0  0  0  0  0  0  0  0  0  0  0  0
  147.8840  160.4830  131.7830 C   0  0  0  0  0  0  0  0  0  0  0  0
  149.3768  162.8475  131.0952 H   0  0  0  0  0  0  0  0  0  0  0  0
  150.1620  161.9906  129.7256 H   0  0  0  0  0  0  0  0  0  0  0  0
  148.3836  162.2437  129.7256 H   0  0  0  0  0  0  0  0  0  0  0  0
  151.0580  159.9865  130.5415 H   0  0  0  0  0  0  0  0  0  0  0  0
  150.7619  157.7998  131.7497 H   0  0  0  0  0  0  0  0  0  0  0  0
  148.9048  156.3004  133.3205 H   0  0  0  0  0  0  0  0  0  0  0  0
  144.3040  156.0530  135.0550 H   0  0  0  0  0  0  0  0  0  0  0  0
  144.3400  157.4550  133.9340 H   0  0  0  0  0  0  0  0  0  0  0  0
  147.0694  161.2220  131.7987 H   0  0  0  0  0  0  0  0  0  0  0  0
  1  2  1  0
  2  3  2  0
  3  4  1  0
  4  5  2  0
  5  6  1  0
  6  7  2  0
  7  8  1  0
  8  9  1  0
  8 10  2  0
  7 11  1  0
 11 12  1  0
 12 13  2  0
 12 14  1  0
 11 15  1  0
 15 16  2  0
 16  2  1  0
 15  5  1  0
  1 17  1  0
  1 18  1  0
  1 19  1  0
  3 20  1  0
  4 21  1  0
  6 22  1  0
  9 23  1  0
  9 24  1  0
 16 25  1  0
M  CHG  1  14  -1
M  END
>  <UniqueID>  (4) 
4

>  <SMILES>  (4) 
Cc1ccc2cc(C(N)=O)n(C(=O)[O-])c2c1

>  <Energy>  (4) 
64.94797111569751

>  <Genealogy>  (4) 
Cc1ccc2cc(C(N)=O)n(C(=O)[O-])c2c1 (protonated)
Cc1ccc2cc(C(N)=O)n(C(=O)[O-])c2c1 (3D coordinates assigned)
Cc1ccc2cc(C(N)=O)n(C(=O)[O-])c2c1 (optimized conformer: 64.94797111569751 kcal/mol)

>  <smiles>  (4) 
Cc1ccc2cc(C(N)=O)n(C(=O)O)c2c1

>  <score_type>  (4) 
oracle

>  <origin>  (4) 
adg

>  <m_score__min__energy>  (4) 
-5.7199999999999998

>  <m_primary>  (4) 
energy

$$$$
4:0
     RDKit          3D

 49 51  0  0  0  0  0  0  0  0999 V2000
  147.6490  155.8550  134.4200 C   0  0  0  0  0  0  0  0  0  0  0  0
  147.6800  156.8450  133.3000 C   0  0  0  0  0  0  0  0  0  0  0  0
  148.4980  156.6770  132.3560 O   0  0  0  0  0  0  0  0  0  0  0  0
  146.8080  157.9880  133.2940 N   0  0  0  0  0  0  0  0  0  0  0  0
  147.1130  159.2500  132.8820 C   0  0  0  0  0  0  0  0  0  0  0  0
  148.4540  159.7310  132.4930 C   0  0  0  0  0  0  0  0  0  0  0  0
  149.6320  158.9920  132.8180 N   0  0  0  0  0  0  0  0  0  0  0  0
  148.5660  160.8400  131.9040 O   0  0  0  0  0  0  0  0  0  0  0  0
  145.9780  160.0570  132.8890 C   0  0  0  0  0  0  0  0  0  0  0  0
  144.9580  159.2460  133.3280 C   0  0  0  0  0  0  0  0  0  0  0  0
  143.6040  159.5230  133.4930 C   0  0  0  0  0  0  0  0  0  0  0  0
  142.7620  158.4770  133.9060 C   0  0  0  0  0  0  0  0  0  0  0  0
  143.2850  157.1800  134.1390 C   0  0  0  0  0  0  0  0  0  0  0  0
  142.3650  156.0560  134.5240 C   0  0  0  0  0  0  0  0  0  0  0  0
  141.0820  156.6060  135.0550 C   0  0  0  0  0  0  0  0  0  0  0  0
  141.0970  157.3850  136.0480 O   0  0  0  0  0  0  0  0  0  0  0  0
  139.8730  156.2070  134.4750 O   0  0  0  0  0  0  0  0  0  0  0  0
  139.5380  156.4470  133.1100 C   0  0  0  0  0  0  0  0  0  0  0  0
  138.7390  157.7480  132.9590 C   0  0  1  0  0  0  0  0  0  0  0  0
  139.4610  158.9420  133.5230 C   0  0  0  0  0  0  0  0  0  0  0  0
  139.1540  160.0060  132.6800 O   0  0  0  0  0  0  0  0  0  0  0  0
  138.7110  159.4230  131.4720 C   0  0  0  0  0  0  0  0  0  0  0  0
  137.3730  160.0560  131.0790 C   0  0  0  0  0  0  0  0  0  0  0  0
  139.7550  159.6830  130.3810 C   0  0  0  0  0  0  0  0  0  0  0  0
  138.5340  158.0280  131.6100 O   0  0  0  0  0  0  0  0  0  0  0  0
  144.6620  156.9330  133.9450 C   0  0  0  0  0  0  0  0  0  0  0  0
  145.4820  157.9990  133.5600 C   0  0  0  0  0  0  0  0  0  0  0  0
  147.6657  156.3887  135.3817 H   0  0  0  0  0  0  0  0  0  0  0  0
  146.7315  155.2521  134.3511 H   0  0  0  0  0  0  0  0  0  0  0  0
  148.5270  155.1959  134.3511 H   0  0  0  0  0  0  0  0  0  0  0  0
  149.5960  158.1740  133.4640 H   0  0  0  0  0  0  0  0  0  0  0  0
  150.5650  159.3240  132.4870 H   0  0  0  0  0  0  0  0  0  0  0  0
  145.9116  161.1174  132.6040 H   0  0  0  0  0  0  0  0  0  0  0  0
  143.2051  160.5308  133.3056 H   0  0  0  0  0  0  0  0  0  0  0  0
  141.6879  158.6659  134.0498 H   0  0  0  0  0  0  0  0  0  0  0  0
  142.1573  155.4359  133.6395 H   0  0  0  0  0  0  0  0  0  0  0  0
  142.8462  155.4457  135.3025 H   0  0  0  0  0  0  0  0  0  0  0  0
  140.4637  156.5233  132.5207 H   0  0  0  0  0  0  0  0  0  0  0  0
  138.9187  155.6123  132.7498 H   0  0  0  0  0  0  0  0  0  0  0  0
  137.7979  157.5866  133.5052 H   0  0  0  0  0  0  0  0  0  0  0  0
  139.1138  159.1514  134.5455 H   0  0  0  0  0  0  0  0  0  0  0  0
  140.5460  158.7696  133.5773 H   0  0  0  0  0  0  0  0  0  0  0  0
  136.8121  160.3214  131.9873 H   0  0  0  0  0  0  0  0  0  0  0  0
  137.5570  160.9625  130.4837 H   0  0  0  0  0  0  0  0  0  0  0  0
  136.7888  159.3388  130.4837 H   0  0  0  0  0  0  0  0  0  0  0  0
  140.7214  159.9237  130.8481 H   0  0  0  0  0  0  0  0  0  0  0  0
  139.8636  158.7845  129.7558 H   0  0  0  0  0  0  0  0  0  0  0  0
  139.4295  160.5275  129.7558 H   0  0  0  0  0  0  0  0  0  0  0  0
  145.0798  155.9263  134.0931 H   0  0  0  0  0  0  0  0  0  0  0  0
  1  2  1  0
  2  3  2  0
  2  4  1  0
  4  5  1  0
  5  6  1  0
  6  7  1  0
  6  8  2  0
  5  9  2  0
  9 10  1  0
 10 11  2  0
 11 12  1  0
 12 13  2  0
 13 14  1  0
 14 15  1  0
 15 16  2  0
 15 17  1  0
 17 18  1  0
 18 19  1  0
 19 20  1  0
 20 21  1  0
 21 22  1  0
 22 23  1  0
 22 24  1  0
 22 25  1  0
 13 26  1  0
 26 27  2  0
 27  4  1  0
 27 10  1  0
 25 19  1  0
  1 28  1  0
  1 29  1  0
  1 30  1  0
  7 31  1  0
  7 32  1  0
  9 33  1  0
 11 34  1  0
 12 35  1  0
 14 36  1  0
 14 37  1  0
 18 38  1  0
 18 39  1  0
 19 40  1  1
 20 41  1  0
 20 42  1  0
 23 43  1  0
 23 44  1  0
 23 45  1  0
 24 46  1  0
 24 47  1  0
 24 48  1  0
 26 49  1  0
M  END
>  <UniqueID>  (5) 
5

>  <SMILES>  (5) 
CC(=O)n1c(C(N)=O)cc2ccc(CC(=O)OC[C@H]3COC(C)(C)O3)cc21

>  <Energy>  (5) 
76.30559970362972

>  <Genealogy>  (5) 
CC(=O)n1c(C(N)=O)cc2ccc(CC(=O)OC[C@H]3COC(C)(C)O3)cc21 (chirality)
CC(=O)n1c(C(N)=O)cc2ccc(CC(=O)OC[C@H]3COC(C)(C)O3)cc21 (3D coordinates assigned)
CC(=O)n1c(C(N)=O)cc2ccc(CC(=O)OC[C@H]3COC(C)(C)O3)cc21 (nonaromatic ring conformer: 76.30559970362972 kcal/mol)

>  <smiles>  (5) 
CC(=O)n1c(C(N)=O)cc2ccc(CC(=O)OCC3COC(C)(C)O3)cc21

>  <score_type>  (5) 
oracle

>  <origin>  (5) 
adg

>  <m_score__min__energy>  (5) 
-8.3000000000000007

>  <m_primary>  (5) 
energy

$$$$
5:0
     RDKit          3D

 58 60  0  0  0  0  0  0  0  0999 V2000
  138.0900  159.0430  131.4640 C   0  0  0  0  0  0  0  0  0  0  0  0
  139.4910  158.7270  131.9590 C   0  0  0  0  0  0  0  0  0  0  0  0
  139.4100  157.9470  133.1470 O   0  0  0  0  0  0  0  0  0  0  0  0
  139.6860  156.5770  133.1740 C   0  0  0  0  0  0  0  0  0  0  0  0
  139.1220  155.7920  132.3640 O   0  0  0  0  0  0  0  0  0  0  0  0
  140.6020  156.0280  134.2290 C   0  0  2  0  0  0  0  0  0  0  0  0
  141.1090  157.1450  135.1640 C   0  0  0  0  0  0  0  0  0  0  0  0
  142.2090  157.9690  134.5380 C   0  0  0  0  0  0  0  0  0  0  0  0
  141.9770  159.3220  134.1880 C   0  0  0  0  0  0  0  0  0  0  0  0
  143.0190  160.1210  133.6880 C   0  0  0  0  0  0  0  0  0  0  0  0
  144.2790  159.5430  133.5550 C   0  0  0  0  0  0  0  0  0  0  0  0
  145.4730  160.1030  133.1650 C   0  0  0  0  0  0  0  0  0  0  0  0
  146.4130  159.0810  133.2700 C   0  0  0  0  0  0  0  0  0  0  0  0
  147.8290  159.2340  132.8750 C   0  0  0  0  0  0  0  0  0  0  0  0
  148.8800  159.0550  133.8220 N   0  0  0  0  0  0  0  0  0  0  0  0
  148.1190  159.4760  131.6730 O   0  0  0  0  0  0  0  0  0  0  0  0
  145.8240  157.9330  133.7120 N   0  0  0  0  0  0  0  0  0  0  0  0
  146.4580  156.6960  134.0740 C   0  0  0  0  0  0  0  0  0  0  0  0
  147.6160  156.7040  134.5760 O   0  0  0  0  0  0  0  0  0  0  0  0
  145.7750  155.4890  133.8970 O   0  0  0  0  0  0  0  0  0  0  0  0
  145.4980  154.6030  134.9730 C   0  0  0  0  0  0  0  0  0  0  0  0
  144.5160  158.2320  133.8740 C   0  0  0  0  0  0  0  0  0  0  0  0
  143.4970  157.4130  134.3710 C   0  0  0  0  0  0  0  0  0  0  0  0
  141.6930  155.3600  133.6060 O   0  0  0  0  0  0  0  0  0  0  0  0
  141.5100  154.1440  132.9850 N   0  0  0  0  0  0  0  0  0  0  0  0
  141.7760  153.0410  133.6080 C   0  0  0  0  0  0  0  0  0  0  0  0
  141.5720  151.7300  132.9600 C   0  0  0  0  0  0  0  0  0  0  0  0
  142.6630  150.8600  132.8110 C   0  0  0  0  0  0  0  0  0  0  0  0
  142.4930  149.6120  132.2080 C   0  0  0  0  0  0  0  0  0  0  0  0
  141.2340  149.2210  131.7430 C   0  0  0  0  0  0  0  0  0  0  0  0
  140.1330  150.0720  131.8800 C   0  0  0  0  0  0  0  0  0  0  0  0
  138.8900  149.6320  131.3990 O   0  0  0  0  0  0  0  0  0  0  0  0
  138.7220  148.6240  130.4060 C   0  0  0  0  0  0  0  0  0  0  0  0
  140.3050  151.3310  132.4910 C   0  0  0  0  0  0  0  0  0  0  0  0
  137.4222  159.1936  132.3250 H   0  0  0  0  0  0  0  0  0  0  0  0
  138.1143  159.9582  130.8543 H   0  0  0  0  0  0  0  0  0  0  0  0
  137.7190  158.2060  130.8543 H   0  0  0  0  0  0  0  0  0  0  0  0
  140.0343  158.1631  131.1865 H   0  0  0  0  0  0  0  0  0  0  0  0
  140.0248  159.6649  132.1719 H   0  0  0  0  0  0  0  0  0  0  0  0
  140.0412  155.3110  134.8466 H   0  0  0  0  0  0  0  0  0  0  0  0
  140.2669  157.8090  135.4091 H   0  0  0  0  0  0  0  0  0  0  0  0
  141.5217  156.6656  136.0639 H   0  0  0  0  0  0  0  0  0  0  0  0
  140.9714  159.7512  134.3089 H   0  0  0  0  0  0  0  0  0  0  0  0
  142.8448  161.1710  133.4101 H   0  0  0  0  0  0  0  0  0  0  0  0
  145.6484  161.1389  132.8391 H   0  0  0  0  0  0  0  0  0  0  0  0
  149.2210  158.1010  134.0720 H   0  0  0  0  0  0  0  0  0  0  0  0
  145.6608  155.1239  135.9281 H   0  0  0  0  0  0  0  0  0  0  0  0
  144.4521  154.2677  134.9119 H   0  0  0  0  0  0  0  0  0  0  0  0
  146.1666  153.7317  134.9119 H   0  0  0  0  0  0  0  0  0  0  0  0
  143.6937  156.3611  134.6258 H   0  0  0  0  0  0  0  0  0  0  0  0
  142.1606  153.0810  134.6378 H   0  0  0  0  0  0  0  0  0  0  0  0
  143.6573  151.1627  133.1711 H   0  0  0  0  0  0  0  0  0  0  0  0
  143.3526  148.9344  132.0985 H   0  0  0  0  0  0  0  0  0  0  0  0
  141.1086  148.2376  131.2663 H   0  0  0  0  0  0  0  0  0  0  0  0
  138.5600  147.6517  130.8943 H   0  0  0  0  0  0  0  0  0  0  0  0
  137.8523  148.8687  129.7786 H   0  0  0  0  0  0  0  0  0  0  0  0
  139.6241  148.5734  129.7786 H   0  0  0  0  0  0  0  0  0  0  0  0
  139.4439  152.0063  132.6022 H   0  0  0  0  0  0  0  0  0  0  0  0
  1  2  1  0
  2  3  1  0
  3  4  1  0
  4  5  2  0
  4  6  1  0
  6  7  1  0
  7  8  1  0
  8  9  2  0
  9 10  1  0
 10 11  2  0
 11 12  1  0
 12 13  2  0
 13 14  1  0
 14 15  1  0
 14 16  2  0
 13 17  1  0
 17 18  1  0
 18 19  2  0
 18 20  1  0
 20 21  1  0
 17 22  1  0
 22 23  2  0
  6 24  1  0
 24 25  1  0
 25 26  2  3
 26 27  1  0
 27 28  2  0
 28 29  1  0
 29 30  2  0
 30 31  1  0
 31 32  1  0
 32 33  1  0
 31 34  2  0
 23  8  1  0
 34 27  1  0
 22 11  1  0
  1 35  1  0
  1 36  1  0
  1 37  1  0
  2 38  1  0
  2 39  1  0
  6 40  1  1
  7 41  1  0
  7 42  1  0
  9 43  1  0
 10 44  1  0
 12 45  1  0
 15 46  1  0
 21 47  1  0
 21 48  1  0
 21 49  1  0
 23 50  1  0
 26 51  1  0
 28 52  1  0
 29 53  1  0
 30 54  1  0
 33 55  1  0
 33 56  1  0
 33 57  1  0
 34 58  1  0
M  CHG  1  15  -1
M  END
>  <UniqueID>  (6) 
6

>  <SMILES>  (6) 
CCOC(=O)[C@H](Cc1ccc2cc(C([NH-])=O)n(C(=O)OC)c2c1)ON=Cc1cccc(OC)c1

>  <Energy>  (6) 
81.70029023184298

>  <Genealogy>  (6) 
CCOC(=O)C(Cc1ccc2cc(C([NH-])=O)n(C(=O)OC)c2c1)ON=Cc1cccc(OC)c1 (protonated)
CCOC(=O)[C@H](Cc1ccc2cc(C([NH-])=O)n(C(=O)OC)c2c1)ON=Cc1cccc(OC)c1 (chirality)
CCOC(=O)[C@H](Cc1ccc2cc(C([NH-])=O)n(C(=O)OC)c2c1)ON=Cc1cccc(OC)c1 (3D coordinates assigned)
CCOC(=O)[C@H](Cc1ccc2cc(C([NH-])=O)n(C(=O)OC)c2c1)ON=Cc1cccc(OC)c1 (optimized conformer: 81.70029023184298 kcal/mol)

>  <smiles>  (6) 
CCOC(=O)C(Cc1ccc2cc(C(N)=O)n(C(=O)OC)c2c1)ON=Cc1cccc(OC)c1

>  <score_type>  (6) 
oracle

>  <origin>  (6) 
adg

>  <m_score__min__energy>  (6) 
-8.5

>  <m_primary>  (6) 
energy

$$$$
6:0
     RDKit          3D

 39 41  0  0  0  0  0  0  0  0999 V2000
  139.5850  159.4000  130.9090 C   0  0  0  0  0  0  0  0  0  0  0  0
  140.5790  159.1700  131.9490 N   0  0  0  0  0  0  0  0  0  0  0  0
  140.2060  158.7950  133.2810 C   0  0  0  0  0  0  0  0  0  0  0  0
  138.9920  158.6240  133.5780 O   0  0  0  0  0  0  0  0  0  0  0  0
  141.2610  158.5540  134.3170 C   0  0  0  0  0  0  0  0  0  0  0  0
  142.6450  159.0850  134.0630 C   0  0  0  0  0  0  0  0  0  0  0  0
  142.8700  160.4820  134.0050 C   0  0  0  0  0  0  0  0  0  0  0  0
  144.1530  160.9890  133.7410 C   0  0  0  0  0  0  0  0  0  0  0  0
  145.1810  160.0780  133.5180 C   0  0  0  0  0  0  0  0  0  0  0  0
  146.5150  160.2940  133.2630 C   0  0  0  0  0  0  0  0  0  0  0  0
  147.0770  159.0260  133.1260 C   0  0  0  0  0  0  0  0  0  0  0  0
  148.4890  158.7990  132.7550 C   0  0  0  0  0  0  0  0  0  0  0  0
  148.9050  157.5680  132.1680 N   0  0  0  0  0  0  0  0  0  0  0  0
  149.3310  159.7230  132.9140 O   0  0  0  0  0  0  0  0  0  0  0  0
  146.1270  158.0620  133.2980 N   0  0  0  0  0  0  0  0  0  0  0  0
  146.3080  156.6380  133.3170 C   0  0  0  0  0  0  0  0  0  0  0  0
  146.5710  156.0220  132.2480 O   0  0  0  0  0  0  0  0  0  0  0  0
  146.2140  155.9420  134.5260 O   0  0  0  0  0  0  0  0  0  0  0  0
  147.3360  155.3190  135.1410 C   0  0  0  0  0  0  0  0  0  0  0  0
  144.9720  158.7220  133.5360 C   0  0  0  0  0  0  0  0  0  0  0  0
  143.7080  158.1900  133.8150 C   0  0  0  0  0  0  0  0  0  0  0  0
  140.7880  158.5500  135.7660 C   0  0  0  0  0  0  0  0  0  0  0  0
  141.1640  157.2420  135.0880 C   0  0  0  0  0  0  0  0  0  0  0  0
  138.6136  159.6248  131.3735 H   0  0  0  0  0  0  0  0  0  0  0  0
  139.8979  160.2495  130.2841 H   0  0  0  0  0  0  0  0  0  0  0  0
  139.4930  158.4994  130.2841 H   0  0  0  0  0  0  0  0  0  0  0  0
  141.5910  159.2810  131.7150 H   0  0  0  0  0  0  0  0  0  0  0  0
  142.0325  161.1762  134.1682 H   0  0  0  0  0  0  0  0  0  0  0  0
  144.3394  162.0727  133.7114 H   0  0  0  0  0  0  0  0  0  0  0  0
  147.0297  161.2629  133.1839 H   0  0  0  0  0  0  0  0  0  0  0  0
  148.3020  157.0740  131.4740 H   0  0  0  0  0  0  0  0  0  0  0  0
  147.2332  155.3761  136.2347 H   0  0  0  0  0  0  0  0  0  0  0  0
  147.3850  154.2645  134.8318 H   0  0  0  0  0  0  0  0  0  0  0  0
  148.2570  155.8349  134.8318 H   0  0  0  0  0  0  0  0  0  0  0  0
  143.5470  157.1021  133.8404 H   0  0  0  0  0  0  0  0  0  0  0  0
  141.4318  158.9648  136.5556 H   0  0  0  0  0  0  0  0  0  0  0  0
  139.8985  158.9240  136.2942 H   0  0  0  0  0  0  0  0  0  0  0  0
  142.0798  156.7111  135.3871 H   0  0  0  0  0  0  0  0  0  0  0  0
  140.6591  156.2788  134.9229 H   0  0  0  0  0  0  0  0  0  0  0  0
  1  2  1  0
  2  3  1  0
  3  4  2  0
  3  5  1  0
  5  6  1  0
  6  7  2  0
  7  8  1  0
  8  9  2  0
  9 10  1  0
 10 11  2  0
 11 12  1  0
 12 13  1  0
 12 14  2  0
 11 15  1  0
 15 16  1  0
 16 17  2  0
 16 18  1  0
 18 19  1  0
 15 20  1  0
 20 21  2  0
  5 22  1  0
 22 23  1  0
 23  5  1  0
 21  6  1  0
 20  9  1  0
  1 24  1  0
  1 25  1  0
  1 26  1  0
  2 27  1  0
  7 28  1  0
  8 29  1  0
 10 30  1  0
 13 31  1  0
 19 32  1  0
 19 33  1  0
 19 34  1  0
 21 35  1  0
 22 36  1  0
 22 37  1  0
 23 38  1  0
 23 39  1  0
M  CHG  1  13  -1
M  END
>  <UniqueID>  (7) 
7

>  <SMILES>  (7) 
CNC(=O)C1(c2ccc3cc(C([NH-])=O)n(C(=O)OC)c3c2)CC1

>  <Energy>  (7) 
338.8004638090907

>  <Genealogy>  (7) 
CNC(=O)C1(c2ccc3cc(C([NH-])=O)n(C(=O)OC)c3c2)CC1 (protonated)
CNC(=O)C1(c2ccc3cc(C([NH-])=O)n(C(=O)OC)c3c2)CC1 (3D coordinates assigned)
CNC(=O)C1(c2ccc3cc(C([NH-])=O)n(C(=O)OC)c3c2)CC1 (nonaromatic ring conformer: 338.8004638090907 kcal/mol)

>  <smiles>  (7) 
CNC(=O)C1(c2ccc3cc(C(N)=O)n(C(=O)OC)c3c2)CC1

>  <score_type>  (7) 
oracle

>  <origin>  (7) 
adg

>  <m_score__min__energy>  (7) 
-7.54

>  <m_primary>  (7) 
energy

$$$$
7:0
     RDKit          3D

 29 30  0  0  0  0  0  0  0  0999 V2000
  148.8990  161.4820  130.7280 C   0  0  0  0  0  0  0  0  0  0  0  0
  149.4600  160.1360  131.0760 C   0  0  0  0  0  0  0  0  0  0  0  0
  149.9610  159.4530  130.1970 O   0  0  0  0  0  0  0  0  0  0  0  0
  149.4050  159.6070  132.4840 C   0  0  0  0  0  0  0  0  0  0  0  0
  147.9950  159.2210  132.8360 C   0  0  0  0  0  0  0  0  0  0  0  0
  147.5710  157.8750  132.7070 C   0  0  0  0  0  0  0  0  0  0  0  0
  146.2430  157.5130  132.9890 C   0  0  0  0  0  0  0  0  0  0  0  0
  145.3660  158.5150  133.3940 C   0  0  0  0  0  0  0  0  0  0  0  0
  144.0260  158.4470  133.6960 C   0  0  0  0  0  0  0  0  0  0  0  0
  143.6520  159.7510  134.0170 C   0  0  0  0  0  0  0  0  0  0  0  0
  142.2990  160.1130  134.4890 C   0  0  0  0  0  0  0  0  0  0  0  0
  141.4670  160.9850  133.7290 N   0  0  0  0  0  0  0  0  0  0  0  0
  141.8900  159.6850  135.6010 O   0  0  0  0  0  0  0  0  0  0  0  0
  144.7180  160.5940  133.9080 N   0  0  0  0  0  0  0  0  0  0  0  0
  144.7330  162.0220  134.0650 C   0  0  0  0  0  0  0  0  0  0  0  0
  145.5750  162.5710  134.8240 O   0  0  0  0  0  0  0  0  0  0  0  0
  143.8020  162.8100  133.4010 O   0  0  0  0  0  0  0  0  0  0  0  0
  145.7600  159.8210  133.5290 C   0  0  0  0  0  0  0  0  0  0  0  0
  147.0720  160.2130  133.2370 C   0  0  0  0  0  0  0  0  0  0  0  0
  148.6692  162.0334  131.6516 H   0  0  0  0  0  0  0  0  0  0  0  0
  149.6371  162.0456  130.1385 H   0  0  0  0  0  0  0  0  0  0  0  0
  147.9791  161.3546  130.1385 H   0  0  0  0  0  0  0  0  0  0  0  0
  150.0554  158.7237  132.5665 H   0  0  0  0  0  0  0  0  0  0  0  0
  149.7476  160.3900  133.1765 H   0  0  0  0  0  0  0  0  0  0  0  0
  148.2882  157.1064  132.3831 H   0  0  0  0  0  0  0  0  0  0  0  0
  145.9069  156.4701  132.8927 H   0  0  0  0  0  0  0  0  0  0  0  0
  143.3851  157.5530  133.6863 H   0  0  0  0  0  0  0  0  0  0  0  0
  141.8230  161.9050  133.3870 H   0  0  0  0  0  0  0  0  0  0  0  0
  147.3767  161.2669  133.3177 H   0  0  0  0  0  0  0  0  0  0  0  0
  1  2  1  0
  2  3  2  0
  2  4  1  0
  4  5  1  0
  5  6  2  0
  6  7  1  0
  7  8  2  0
  8  9  1  0
  9 10  2  0
 10 11  1  0
 11 12  1  0
 11 13  2  0
 10 14  1  0
 14 15  1  0
 15 16  2  0
 15 17  1  0
 14 18  1  0
 18 19  2  0
 19  5  1  0
 18  8  1  0
  1 20  1  0
  1 21  1  0
  1 22  1  0
  4 23  1  0
  4 24  1  0
  6 25  1  0
  7 26  1  0
  9 27  1  0
 12 28  1  0
 19 29  1  0
M  CHG  2  12  -1  17  -1
M  END
>  <UniqueID>  (8) 
8

>  <SMILES>  (8) 
CC(=O)Cc1ccc2cc(C([NH-])=O)n(C(=O)[O-])c2c1

>  <Energy>  (8) 
65.05320853632169

>  <Genealogy>  (8) 
CC(=O)Cc1ccc2cc(C([NH-])=O)n(C(=O)[O-])c2c1 (protonated)
CC(=O)Cc1ccc2cc(C([NH-])=O)n(C(=O)[O-])c2c1 (3D coordinates assigned)
CC(=O)Cc1ccc2cc(C([NH-])=O)n(C(=O)[O-])c2c1 (optimized conformer: 65.05320853632169 kcal/mol)

>  <smiles>  (8) 
CC(=O)Cc1ccc2cc(C(N)=O)n(C(=O)O)c2c1

>  <score_type>  (8) 
oracle

>  <origin>  (8) 
adg

>  <m_score__min__energy>  (8) 
-6.6500000000000004

>  <m_primary>  (8) 
energy

$$$$
8:0
     RDKit          3D

 47 50  0  0  0  0  0  0  0  0999 V2000
  149.1820  159.1420  131.1500 C   0  0  0  0  0  0  0  0  0  0  0  0
  148.7460  160.6010  131.1870 C   0  0  0  0  0  0  0  0  0  0  0  0
  148.0800  160.8970  132.4130 O   0  0  0  0  0  0  0  0  0  0  0  0
  147.7950  159.9380  133.3920 C   0  0  0  0  0  0  0  0  0  0  0  0
  148.7130  159.5430  134.1610 O   0  0  0  0  0  0  0  0  0  0  0  0
  146.4500  159.4340  133.5440 N   0  0  0  0  0  0  0  0  0  0  0  0
  145.3100  160.1650  133.7250 C   0  0  0  0  0  0  0  0  0  0  0  0
  145.2380  161.6170  133.9520 C   0  0  0  0  0  0  0  0  0  0  0  0
  146.4250  162.3830  134.1590 N   0  0  0  0  0  0  0  0  0  0  0  0
  144.1130  162.1760  134.0390 O   0  0  0  0  0  0  0  0  0  0  0  0
  144.1820  159.3580  133.6480 C   0  0  0  0  0  0  0  0  0  0  0  0
  144.6600  158.0870  133.4400 C   0  0  0  0  0  0  0  0  0  0  0  0
  143.9660  156.8900  133.3030 C   0  0  0  0  0  0  0  0  0  0  0  0
  144.7100  155.7150  133.1130 C   0  0  0  0  0  0  0  0  0  0  0  0
  146.1270  155.7530  133.0760 C   0  0  0  0  0  0  0  0  0  0  0  0
  146.8980  154.5020  132.8850 C   0  0  0  0  0  0  0  0  0  0  0  0
  146.2260  153.2710  132.7900 C   0  0  0  0  0  0  0  0  0  0  0  0
  146.9400  152.0850  132.6030 C   0  0  0  0  0  0  0  0  0  0  0  0
  148.3370  152.1110  132.4980 C   0  0  0  0  0  0  0  0  0  0  0  0
  149.1090  150.8290  132.3340 C   0  0  0  0  0  0  0  0  0  0  0  0
  148.6080  149.6740  132.9440 O   0  0  0  0  0  0  0  0  0  0  0  0
  150.6270  150.9310  132.3480 C   0  0  0  0  0  0  0  0  0  0  0  0
  149.8950  150.6060  131.0510 C   0  0  0  0  0  0  0  0  0  0  0  0
  149.0160  153.3310  132.6190 C   0  0  0  0  0  0  0  0  0  0  0  0
  148.3060  154.5210  132.8060 C   0  0  0  0  0  0  0  0  0  0  0  0
  148.9940  155.6810  132.9480 F   0  0  0  0  0  0  0  0  0  0  0  0
  146.7960  156.9920  133.2140 C   0  0  0  0  0  0  0  0  0  0  0  0
  146.0300  158.1540  133.3840 C   0  0  0  0  0  0  0  0  0  0  0  0
  149.2942  158.7667  132.1779 H   0  0  0  0  0  0  0  0  0  0  0  0
  148.4228  158.5457  130.6227 H   0  0  0  0  0  0  0  0  0  0  0  0
  150.1439  159.0600  130.6227 H   0  0  0  0  0  0  0  0  0  0  0  0
  149.6326  161.2453  131.0929 H   0  0  0  0  0  0  0  0  0  0  0  0
  148.0513  160.7838  130.3540 H   0  0  0  0  0  0  0  0  0  0  0  0
  147.3580  161.9160  134.2120 H   0  0  0  0  0  0  0  0  0  0  0  0
  146.3670  163.4150  134.3080 H   0  0  0  0  0  0  0  0  0  0  0  0
  143.1308  159.6700  133.7350 H   0  0  0  0  0  0  0  0  0  0  0  0
  142.8670  156.8646  133.3423 H   0  0  0  0  0  0  0  0  0  0  0  0
  144.1882  154.7543  132.9915 H   0  0  0  0  0  0  0  0  0  0  0  0
  145.1289  153.2414  132.8635 H   0  0  0  0  0  0  0  0  0  0  0  0
  146.4034  151.1270  132.5379 H   0  0  0  0  0  0  0  0  0  0  0  0
  148.1360  149.9870  133.7590 H   0  0  0  0  0  0  0  0  0  0  0  0
  151.1115  151.9102  132.4759 H   0  0  0  0  0  0  0  0  0  0  0  0
  151.4336  150.4567  132.9263 H   0  0  0  0  0  0  0  0  0  0  0  0
  149.8512  151.3506  130.2425 H   0  0  0  0  0  0  0  0  0  0  0  0
  149.9544  149.7998  130.3050 H   0  0  0  0  0  0  0  0  0  0  0  0
  150.1145  153.3526  132.5665 H   0  0  0  0  0  0  0  0  0  0  0  0
  147.8945  157.0426  133.1885 H   0  0  0  0  0  0  0  0  0  0  0  0
  1  2  1  0
  2  3  1  0
  3  4  1  0
  4  5  2  0
  4  6  1  0
  6  7  1  0
  7  8  1  0
  8  9  1  0
  8 10  2  0
  7 11  2  0
 11 12  1  0
 12 13  2  0
 13 14  1  0
 14 15  2  0
 15 16  1  0
 16 17  2  0
 17 18  1  0
 18 19  2  0
 19 20  1  0
 20 21  1  0
 20 22  1  0
 22 23  1  0
 19 24  1  0
 24 25  2  0
 25 26  1  0
 15 27  1  0
 27 28  2  0
 28  6  1  0
 28 12  1  0
 25 16  1  0
 23 20  1  0
  1 29  1  0
  1 30  1  0
  1 31  1  0
  2 32  1  0
  2 33  1  0
  9 34  1  0
  9 35  1  0
 11 36  1  0
 13 37  1  0
 14 38  1  0
 17 39  1  0
 18 40  1  0
 21 41  1  0
 22 42  1  0
 22 43  1  0
 23 44  1  0
 23 45  1  0
 24 46  1  0
 27 47  1  0
M  END
>  <UniqueID>  (9) 
9

>  <SMILES>  (9) 
CCOC(=O)n1c(C(N)=O)cc2ccc(-c3ccc(C4(O)CC4)cc3F)cc21

>  <Energy>  (9) 
361.86213596630193

>  <Genealogy>  (9) 
CCOC(=O)n1c(C(N)=O)cc2ccc(-c3ccc(C4(O)CC4)cc3F)cc21 (3D coordinates assigned)
CCOC(=O)n1c(C(N)=O)cc2ccc(-c3ccc(C4(O)CC4)cc3F)cc21 (nonaromatic ring conformer: 361.86213596630193 kcal/mol)

>  <smiles>  (9) 
CCOC(=O)n1c(C(N)=O)cc2ccc(-c3ccc(C4(O)CC4)cc3F)cc21

>  <score_type>  (9) 
oracle

>  <origin>  (9) 
adg

>  <m_score__min__energy>  (9) 
-8.9000000000000004

>  <m_primary>  (9) 
energy

$$$$
9:0
     RDKit          3D

 41 42  0  0  0  0  0  0  0  0999 V2000
  138.7200  160.4880  130.7540 C   0  0  0  0  0  0  0  0  0  0  0  0
  138.6380  159.0410  131.2270 C   0  0  0  0  0  0  0  0  0  0  0  0
  139.7410  158.7340  132.0760 O   0  0  0  0  0  0  0  0  0  0  0  0
  139.6110  158.0540  133.2920 C   0  0  0  0  0  0  0  0  0  0  0  0
  138.9720  156.9690  133.3620 O   0  0  0  0  0  0  0  0  0  0  0  0
  140.2900  158.5980  134.5090 C   0  0  0  0  0  0  0  0  0  0  0  0
  141.6890  159.0470  134.1770 C   0  0  0  0  0  0  0  0  0  0  0  0
  141.9890  160.4270  134.0630 C   0  0  0  0  0  0  0  0  0  0  0  0
  143.2880  160.8530  133.7360 C   0  0  0  0  0  0  0  0  0  0  0  0
  144.2600  159.8800  133.5240 C   0  0  0  0  0  0  0  0  0  0  0  0
  145.5950  160.0180  133.2190 C   0  0  0  0  0  0  0  0  0  0  0  0
  146.0920  158.7180  133.1390 C   0  0  0  0  0  0  0  0  0  0  0  0
  147.4770  158.3920  132.7360 C   0  0  0  0  0  0  0  0  0  0  0  0
  147.7440  157.2950  131.8620 N   0  0  0  0  0  0  0  0  0  0  0  0
  148.4410  159.0650  133.1900 O   0  0  0  0  0  0  0  0  0  0  0  0
  145.1040  157.8100  133.3930 N   0  0  0  0  0  0  0  0  0  0  0  0
  145.2370  156.3820  133.5210 C   0  0  0  0  0  0  0  0  0  0  0  0
  145.1400  155.8380  134.6560 O   0  0  0  0  0  0  0  0  0  0  0  0
  145.4410  155.5950  132.3850 O   0  0  0  0  0  0  0  0  0  0  0  0
  144.4360  154.7440  131.8450 C   0  0  0  0  0  0  0  0  0  0  0  0
  144.7240  153.3040  132.2380 C   0  0  0  0  0  0  0  0  0  0  0  0
  143.9870  158.5400  133.6190 C   0  0  0  0  0  0  0  0  0  0  0  0
  142.7040  158.0900  133.9510 C   0  0  0  0  0  0  0  0  0  0  0  0
  138.7579  161.1573  131.6262 H   0  0  0  0  0  0  0  0  0  0  0  0
  139.6273  160.6246  130.1473 H   0  0  0  0  0  0  0  0  0  0  0  0
  137.8339  160.7262  130.1473 H   0  0  0  0  0  0  0  0  0  0  0  0
  137.7003  158.8937  131.7830 H   0  0  0  0  0  0  0  0  0  0  0  0
  138.6655  158.3764  130.3509 H   0  0  0  0  0  0  0  0  0  0  0  0
  139.7159  159.4551  134.8910 H   0  0  0  0  0  0  0  0  0  0  0  0
  140.3421  157.8062  135.2708 H   0  0  0  0  0  0  0  0  0  0  0  0
  141.1977  161.1722  134.2320 H   0  0  0  0  0  0  0  0  0  0  0  0
  143.5289  161.9229  133.6503 H   0  0  0  0  0  0  0  0  0  0  0  0
  146.1516  160.9550  133.0700 H   0  0  0  0  0  0  0  0  0  0  0  0
  148.7300  157.0430  131.6240 H   0  0  0  0  0  0  0  0  0  0  0  0
  146.9680  156.7560  131.4170 H   0  0  0  0  0  0  0  0  0  0  0  0
  143.4532  155.0418  132.2392 H   0  0  0  0  0  0  0  0  0  0  0  0
  144.4337  154.8306  130.7484 H   0  0  0  0  0  0  0  0  0  0  0  0
  144.7409  153.2196  133.3346 H   0  0  0  0  0  0  0  0  0  0  0  0
  143.9390  152.6491  131.8319 H   0  0  0  0  0  0  0  0  0  0  0  0
  145.7005  153.0014  131.8319 H   0  0  0  0  0  0  0  0  0  0  0  0
  142.4902  157.0142  134.0343 H   0  0  0  0  0  0  0  0  0  0  0  0
  1  2  1  0
  2  3  1  0
  3  4  1  0
  4  5  2  0
  4  6  1  0
  6  7  1  0
  7  8  2  0
  8  9  1  0
  9 10  2  0
 10 11  1  0
 11 12  2  0
 12 13  1  0
 13 14  1  0
 13 15  2  0
 12 16  1  0
 16 17  1  0
 17 18  2  0
 17 19  1  0
 19 20  1  0
 20 21  1  0
 16 22  1  0
 22 23  2  0
 23  7  1  0
 22 10  1  0
  1 24  1  0
  1 25  1  0
  1 26  1  0
  2 27  1  0
  2 28  1  0
  6 29  1  0
  6 30  1  0
  8 31  1  0
  9 32  1  0
 11 33  1  0
 14 34  1  0
 14 35  1  0
 20 36  1  0
 20 37  1  0
 21 38  1  0
 21 39  1  0
 21 40  1  0
 23 41  1  0
M  END
>  <UniqueID>  (10) 
10

>  <SMILES>  (10) 
CCOC(=O)Cc1ccc2cc(C(N)=O)n(C(=O)OCC)c2c1

>  <Energy>  (10) 
67.74113465213803

>  <Genealogy>  (10) 
CCOC(=O)Cc1ccc2cc(C(N)=O)n(C(=O)OCC)c2c1 (3D coordinates assigned)
CCOC(=O)Cc1ccc2cc(C(N)=O)n(C(=O)OCC)c2c1 (optimized conformer: 67.74113465213803 kcal/mol)

>  <smiles>  (10) 
CCOC(=O)Cc1ccc2cc(C(N)=O)n(C(=O)OCC)c2c1

>  <score_type>  (10) 
oracle

>  <origin>  (10) 
adg

>  <m_score__min__energy>  (10) 
-6.6600000000000001

>  <m_primary>  (10) 
energy

$$$$
10:0
     RDKit          3D

 42 44  0  0  0  0  0  0  0  0999 V2000
  150.9210  150.0550  130.1010 C   0  0  0  0  0  0  0  0  0  0  0  0
  149.8000  150.3990  130.9060 O   0  0  0  0  0  0  0  0  0  0  0  0
  149.9210  151.1070  132.1060 C   0  0  0  0  0  0  0  0  0  0  0  0
  150.7690  150.7480  132.9680 O   0  0  0  0  0  0  0  0  0  0  0  0
  149.0520  152.2790  132.3610 C   0  0  0  0  0  0  0  0  0  0  0  0
  147.6800  152.1050  132.6030 C   0  0  0  0  0  0  0  0  0  0  0  0
  146.8560  153.2080  132.8440 C   0  0  0  0  0  0  0  0  0  0  0  0
  147.3870  154.5100  132.8500 C   0  0  0  0  0  0  0  0  0  0  0  0
  146.5110  155.6810  133.1060 C   0  0  0  0  0  0  0  0  0  0  0  0
  145.1240  155.4990  133.3490 C   0  0  0  0  0  0  0  0  0  0  0  0
  144.2890  156.5990  133.6050 C   0  0  0  0  0  0  0  0  0  0  0  0
  144.8600  157.8670  133.6030 C   0  0  0  0  0  0  0  0  0  0  0  0
  144.2890  159.0930  133.8560 C   0  0  0  0  0  0  0  0  0  0  0  0
  145.3260  160.0140  133.7340 C   0  0  0  0  0  0  0  0  0  0  0  0
  145.1370  161.4710  133.8680 C   0  0  0  0  0  0  0  0  0  0  0  0
  146.2410  162.3410  134.1240 N   0  0  0  0  0  0  0  0  0  0  0  0
  143.9900  161.9650  133.6990 O   0  0  0  0  0  0  0  0  0  0  0  0
  146.4970  159.3840  133.4320 N   0  0  0  0  0  0  0  0  0  0  0  0
  147.8030  159.9750  133.3450 C   0  0  0  0  0  0  0  0  0  0  0  0
  148.7170  159.6120  134.1350 O   0  0  0  0  0  0  0  0  0  0  0  0
  148.0570  160.9570  132.3820 O   0  0  0  0  0  0  0  0  0  0  0  0
  148.5730  160.6530  131.0910 C   0  0  0  0  0  0  0  0  0  0  0  0
  146.1940  158.0680  133.3510 C   0  0  0  0  0  0  0  0  0  0  0  0
  147.0530  156.9890  133.1150 C   0  0  0  0  0  0  0  0  0  0  0  0
  148.7610  154.6820  132.6080 C   0  0  0  0  0  0  0  0  0  0  0  0
  149.5850  153.5800  132.3670 C   0  0  0  0  0  0  0  0  0  0  0  0
  151.7711  149.7941  130.7485 H   0  0  0  0  0  0  0  0  0  0  0  0
  150.6659  149.1938  129.4660 H   0  0  0  0  0  0  0  0  0  0  0  0
  151.1929  150.9110  129.4660 H   0  0  0  0  0  0  0  0  0  0  0  0
  147.2501  151.0925  132.6029 H   0  0  0  0  0  0  0  0  0  0  0  0
  145.7826  153.0562  133.0306 H   0  0  0  0  0  0  0  0  0  0  0  0
  144.6984  154.4847  133.3366 H   0  0  0  0  0  0  0  0  0  0  0  0
  143.2154  156.4616  133.8012 H   0  0  0  0  0  0  0  0  0  0  0  0
  143.2373  159.3012  134.1022 H   0  0  0  0  0  0  0  0  0  0  0  0
  146.0820  163.3640  134.2560 H   0  0  0  0  0  0  0  0  0  0  0  0
  147.2220  161.9860  134.1030 H   0  0  0  0  0  0  0  0  0  0  0  0
  149.5165  160.0971  131.1948 H   0  0  0  0  0  0  0  0  0  0  0  0
  147.8447  160.0396  130.5402 H   0  0  0  0  0  0  0  0  0  0  0  0
  148.7566  161.5873  130.5402 H   0  0  0  0  0  0  0  0  0  0  0  0
  148.1265  157.1534  132.9402 H   0  0  0  0  0  0  0  0  0  0  0  0
  149.1915  155.6942  132.6084 H   0  0  0  0  0  0  0  0  0  0  0  0
  150.6585  153.7312  132.1806 H   0  0  0  0  0  0  0  0  0  0  0  0
  1  2  1  0
  2  3  1  0
  3  4  2  0
  3  5  1  0
  5  6  2  0
  6  7  1  0
  7  8  2  0
  8  9  1  0
  9 10  2  0
 10 11  1  0
 11 12  2  0
 12 13  1  0
 13 14  2  0
 14 15  1  0
 15 16  1  0
 15 17  2  0
 14 18  1  0
 18 19  1  0
 19 20  2  0
 19 21  1  0
 21 22  1  0
 18 23  1  0
 23 24  2  0
  8 25  1  0
 25 26  2  0
 26  5  1  0
 24  9  1  0
 23 12  1  0
  1 27  1  0
  1 28  1  0
  1 29  1  0
  6 30  1  0
  7 31  1  0
 10 32  1  0
 11 33  1  0
 13 34  1  0
 16 35  1  0
 16 36  1  0
 22 37  1  0
 22 38  1  0
 22 39  1  0
 24 40  1  0
 25 41  1  0
 26 42  1  0
M  END
>  <UniqueID>  (11) 
11

>  <SMILES>  (11) 
COC(=O)c1ccc(-c2ccc3cc(C(N)=O)n(C(=O)OC)c3c2)cc1

>  <Energy>  (11) 
85.36190095162597

>  <Genealogy>  (11) 
COC(=O)c1ccc(-c2ccc3cc(C(N)=O)n(C(=O)OC)c3c2)cc1 (3D coordinates assigned)
COC(=O)c1ccc(-c2ccc3cc(C(N)=O)n(C(=O)OC)c3c2)cc1 (optimized conformer: 85.36190095162597 kcal/mol)

>  <smiles>  (11) 
COC(=O)c1ccc(-c2ccc3cc(C(N)=O)n(C(=O)OC)c3c2)cc1

>  <score_type>  (11) 
oracle

>  <origin>  (11) 
adg

>  <m_score__min__energy>  (11) 
-7.6100000000000003

>  <m_primary>  (11) 
energy

$$$$
11:0
     RDKit          3D

 59 61  0  0  0  0  0  0  0  0999 V2000
  139.4876  155.7907  133.3665 H   0  0  0  0  0  0  0  0  0  0  0  0
  139.4480  156.8900  133.3640 C   0  0  0  0  0  0  0  0  0  0  0  0
  139.4620  157.4940  132.2090 N   0  0  0  0  0  0  0  0  0  0  0  0
  139.4590  158.9310  131.9260 C   0  0  0  0  0  0  0  0  0  0  0  0
  140.3407  159.1793  131.3169 H   0  0  0  0  0  0  0  0  0  0  0  0
  139.4840  159.4759  132.8812 H   0  0  0  0  0  0  0  0  0  0  0  0
  138.1970  159.3380  131.1670 C   0  0  0  0  0  0  0  0  0  0  0  0
  137.4038  159.5938  131.8849 H   0  0  0  0  0  0  0  0  0  0  0  0
  138.4150  160.2114  130.5348 H   0  0  0  0  0  0  0  0  0  0  0  0
  137.8636  158.5018  130.5348 H   0  0  0  0  0  0  0  0  0  0  0  0
  139.3820  157.5850  134.6840 C   0  0  0  0  0  0  0  0  0  0  0  0
  138.2390  158.2380  135.0150 F   0  0  0  0  0  0  0  0  0  0  0  0
  140.4080  157.6230  135.5720 C   0  0  0  0  0  0  0  0  0  0  0  0
  140.2190  158.3890  136.7770 N   0  0  0  0  0  0  0  0  0  0  0  0
  139.4540  159.0970  136.8610 H   0  0  0  0  0  0  0  0  0  0  0  0
  140.9030  158.3660  137.5630 H   0  0  0  0  0  0  0  0  0  0  0  0
  141.7250  156.8650  135.3410 C   0  0  1  0  0  0  0  0  0  0  0  0
  141.4621  156.1428  134.5541 H   0  0  0  0  0  0  0  0  0  0  0  0
  142.8640  157.7090  134.7640 C   0  0  0  0  0  0  0  0  0  0  0  0
  142.6230  159.0690  134.4270 C   0  0  0  0  0  0  0  0  0  0  0  0
  141.6473  159.5193  134.6618 H   0  0  0  0  0  0  0  0  0  0  0  0
  143.6100  159.8480  133.7990 C   0  0  0  0  0  0  0  0  0  0  0  0
  143.4157  160.8954  133.5247 H   0  0  0  0  0  0  0  0  0  0  0  0
  144.8390  159.2550  133.5350 C   0  0  0  0  0  0  0  0  0  0  0  0
  145.9520  159.7680  132.9070 C   0  0  0  0  0  0  0  0  0  0  0  0
  146.0808  160.7789  132.4930 H   0  0  0  0  0  0  0  0  0  0  0  0
  146.8770  158.7310  132.9100 C   0  0  0  0  0  0  0  0  0  0  0  0
  148.2410  158.8480  132.3820 C   0  0  0  0  0  0  0  0  0  0  0  0
  148.9620  159.8210  132.7250 O   0  0  0  0  0  0  0  0  0  0  0  0
  148.7540  157.8550  131.4960 N   0  0  0  0  0  0  0  0  0  0  0  0
  148.1730  157.0280  131.2320 H   0  0  0  0  0  0  0  0  0  0  0  0
  149.7120  157.9460  131.0900 H   0  0  0  0  0  0  0  0  0  0  0  0
  146.3690  157.6250  133.5150 N   0  0  0  0  0  0  0  0  0  0  0  0
  147.0510  156.3770  133.7270 C   0  0  0  0  0  0  0  0  0  0  0  0
  147.3170  155.9920  134.8980 O   0  0  0  0  0  0  0  0  0  0  0  0
  147.4450  155.6040  132.6320 O   0  0  0  0  0  0  0  0  0  0  0  0
  148.4090  154.5630  132.7320 C   0  0  0  0  0  0  0  0  0  0  0  0
  148.6080  154.3481  133.7923 H   0  0  0  0  0  0  0  0  0  0  0  0
  148.0233  153.6576  132.2405 H   0  0  0  0  0  0  0  0  0  0  0  0
  149.3413  154.8781  132.2405 H   0  0  0  0  0  0  0  0  0  0  0  0
  145.1130  157.9580  133.8860 C   0  0  0  0  0  0  0  0  0  0  0  0
  144.1380  157.1490  134.4790 C   0  0  0  0  0  0  0  0  0  0  0  0
  144.3540  156.0978  134.7204 H   0  0  0  0  0  0  0  0  0  0  0  0
  142.1970  156.0570  136.5820 C   0  0  0  0  0  0  0  0  0  0  0  0
  142.1968  154.9877  136.3239 H   0  0  0  0  0  0  0  0  0  0  0  0
  143.2023  156.4181  136.8445 H   0  0  0  0  0  0  0  0  0  0  0  0
  141.3340  156.2550  137.7690 N   0  0  0  0  0  0  0  0  0  0  0  0
  140.6910  155.0200  138.2480 C   0  0  0  0  0  0  0  0  0  0  0  0
  139.6665  154.9540  137.8529 H   0  0  0  0  0  0  0  0  0  0  0  0
  141.2518  154.1374  137.9066 H   0  0  0  0  0  0  0  0  0  0  0  0
  140.6570  155.0730  139.7730 C   0  0  0  0  0  0  0  0  0  0  0  0
  139.6182  155.0631  140.1348 H   0  0  0  0  0  0  0  0  0  0  0  0
  141.1616  154.2050  140.2224 H   0  0  0  0  0  0  0  0  0  0  0  0
  141.3360  156.3740  140.1490 C   0  0  0  0  0  0  0  0  0  0  0  0
  140.5916  157.1413  140.4082 H   0  0  0  0  0  0  0  0  0  0  0  0
  141.9881  156.2687  141.0286 H   0  0  0  0  0  0  0  0  0  0  0  0
  142.1020  156.7690  138.9060 C   0  0  0  0  0  0  0  0  0  0  0  0
  142.1883  157.8638  138.8436 H   0  0  0  0  0  0  0  0  0  0  0  0
  143.1223  156.3582  138.9177 H   0  0  0  0  0  0  0  0  0  0  0  0
  1  2  1  0
  2  3  2  0
  3  4  1  0
  4  5  1  0
  4  6  1  0
  4  7  1  0
  7  8  1  0
  7  9  1  0
  7 10  1  0
  2 11  1  0
 11 12  1  0
 11 13  2  0
 13 14  1  0
 14 15  1  0
 14 16  1  0
 13 17  1  0
 17 18  1  6
 17 19  1  0
 19 20  2  0
 20 21  1  0
 20 22  1  0
 22 23  1  0
 22 24  2  0
 24 25  1  0
 25 26  1  0
 25 27  2  0
 27 28  1  0
 28 29  2  0
 28 30  1  0
 30 31  1  0
 30 32  1  0
 27 33  1  0
 33 34  1  0
 34 35  2  0
 34 36  1  0
 36 37  1  0
 37 38  1  0
 37 39  1  0
 37 40  1  0
 33 41  1  0
 41 42  2  0
 42 43  1  0
 17 44  1  0
 44 45  1  0
 44 46  1  0
 44 47  1  0
 47 48  1  0
 48 49  1  0
 48 50  1  0
 48 51  1  0
 51 52  1  0
 51 53  1  0
 51 54  1  0
 54 55  1  0
 54 56  1  0
 54 57  1  0
 57 58  1  0
 57 59  1  0
 42 19  1  0
 57 47  1  0
 41 24  1  0
M  END
>  <UniqueID>  (12) 
12

>  <SMILES>  (12) 
CC/N=C\C(F)=C(\N)[C@H](CN1CCCC1)c1ccc2cc(C(N)=O)n(C(=O)OC)c2c1

>  <Energy>  (12) 
112.90196607945353

>  <Genealogy>  (12) 
CC/N=C\C(F)=C(\N)[C@H](CN1CCCC1)c1ccc2cc(C(N)=O)n(C(=O)OC)c2c1 (chirality)
CC/N=C\C(F)=C(\N)[C@H](CN1CCCC1)c1ccc2cc(C(N)=O)n(C(=O)OC)c2c1 (cis-trans isomerization)
CC/N=C\C(F)=C(\N)[C@H](CN1CCCC1)c1ccc2cc(C(N)=O)n(C(=O)OC)c2c1 (3D coordinates assigned)
CC/N=C\C(F)=C(\N)[C@H](CN1CCCC1)c1ccc2cc(C(N)=O)n(C(=O)OC)c2c1 (nonaromatic ring conformer: 112.90196607945353 kcal/mol)

>  <smiles>  (12) 
CC/N=C\C(F)=C(\N)C(CN1CCCC1)c1ccc2cc(C(N)=O)n(C(=O)OC)c2c1

>  <score_type>  (12) 
oracle

>  <origin>  (12) 
adg

>  <m_score__min__energy>  (12) 
-9.3200000000000003

>  <m_primary>  (12) 
energy

$$$$
12:0
     RDKit          3D

 47 49  0  0  0  0  0  0  0  0999 V2000
  142.5650  157.7520  134.7180 C   0  0  0  0  0  0  0  0  0  0  0  0
  142.3790  158.2730  133.2980 C   0  0  0  0  0  0  0  0  0  0  0  0
  143.6300  158.3300  132.6150 O   0  0  0  0  0  0  0  0  0  0  0  0
  144.8260  158.7220  133.2260 C   0  0  0  0  0  0  0  0  0  0  0  0
  144.9300  159.8660  133.7470 O   0  0  0  0  0  0  0  0  0  0  0  0
  145.9420  157.8150  133.2530 N   0  0  0  0  0  0  0  0  0  0  0  0
  147.2650  158.1360  133.2170 C   0  0  0  0  0  0  0  0  0  0  0  0
  147.8290  159.4970  133.3130 C   0  0  0  0  0  0  0  0  0  0  0  0
  147.2120  160.6010  132.6500 N   0  0  0  0  0  0  0  0  0  0  0  0
  148.8380  159.6980  134.0390 O   0  0  0  0  0  0  0  0  0  0  0  0
  148.0470  156.9890  133.1230 C   0  0  0  0  0  0  0  0  0  0  0  0
  147.1550  155.9410  133.1150 C   0  0  0  0  0  0  0  0  0  0  0  0
  147.3850  154.5720  133.0180 C   0  0  0  0  0  0  0  0  0  0  0  0
  146.2730  153.7160  132.9910 C   0  0  0  0  0  0  0  0  0  0  0  0
  144.9530  154.2380  133.0490 C   0  0  0  0  0  0  0  0  0  0  0  0
  143.7830  153.3240  133.0050 C   0  0  0  0  0  0  0  0  0  0  0  0
  143.9680  151.9340  132.9510 C   0  0  0  0  0  0  0  0  0  0  0  0
  142.8700  151.0730  132.9080 C   0  0  0  0  0  0  0  0  0  0  0  0
  141.5610  151.5870  132.9200 C   0  0  0  0  0  0  0  0  0  0  0  0
  140.4320  150.7520  132.8790 O   0  0  0  0  0  0  0  0  0  0  0  0
  140.4050  149.4610  132.2780 C   0  0  0  0  0  0  0  0  0  0  0  0
  141.3610  152.9740  132.9750 C   0  0  0  0  0  0  0  0  0  0  0  0
  140.0430  153.4580  132.9890 O   0  0  0  0  0  0  0  0  0  0  0  0
  139.6880  154.8360  132.9880 C   0  0  0  0  0  0  0  0  0  0  0  0
  142.4740  153.8380  133.0170 C   0  0  0  0  0  0  0  0  0  0  0  0
  144.7620  155.6370  133.1450 C   0  0  0  0  0  0  0  0  0  0  0  0
  145.8900  156.4650  133.1920 C   0  0  0  0  0  0  0  0  0  0  0  0
  142.2848  158.5367  135.4361 H   0  0  0  0  0  0  0  0  0  0  0  0
  141.9264  156.8696  134.8714 H   0  0  0  0  0  0  0  0  0  0  0  0
  143.6181  157.4736  134.8714 H   0  0  0  0  0  0  0  0  0  0  0  0
  141.6999  157.6010  132.7527 H   0  0  0  0  0  0  0  0  0  0  0  0
  141.9550  159.2869  133.3455 H   0  0  0  0  0  0  0  0  0  0  0  0
  147.6480  161.5500  132.6960 H   0  0  0  0  0  0  0  0  0  0  0  0
  146.2860  160.5000  132.1810 H   0  0  0  0  0  0  0  0  0  0  0  0
  149.1441  156.9320  133.0670 H   0  0  0  0  0  0  0  0  0  0  0  0
  148.4084  154.1724  132.9641 H   0  0  0  0  0  0  0  0  0  0  0  0
  146.4253  152.6286  132.9242 H   0  0  0  0  0  0  0  0  0  0  0  0
  144.9868  151.5194  132.9425 H   0  0  0  0  0  0  0  0  0  0  0  0
  143.0297  149.9855  132.8645 H   0  0  0  0  0  0  0  0  0  0  0  0
  140.3889  148.6911  133.0635 H   0  0  0  0  0  0  0  0  0  0  0  0
  139.5047  149.3662  131.6532 H   0  0  0  0  0  0  0  0  0  0  0  0
  141.3006  149.3286  131.6532 H   0  0  0  0  0  0  0  0  0  0  0  0
  139.5964  155.1918  134.0248 H   0  0  0  0  0  0  0  0  0  0  0  0
  140.4664  155.4148  132.4692 H   0  0  0  0  0  0  0  0  0  0  0  0
  138.7269  154.9667  132.4692 H   0  0  0  0  0  0  0  0  0  0  0  0
  142.3170  154.9259  133.0596 H   0  0  0  0  0  0  0  0  0  0  0  0
  143.7492  156.0646  133.1819 H   0  0  0  0  0  0  0  0  0  0  0  0
  1  2  1  0
  2  3  1  0
  3  4  1  0
  4  5  2  0
  4  6  1  0
  6  7  1  0
  7  8  1  0
  8  9  1  0
  8 10  2  0
  7 11  2  0
 11 12  1  0
 12 13  2  0
 13 14  1  0
 14 15  2  0
 15 16  1  0
 16 17  2  0
 17 18  1  0
 18 19  2  0
 19 20  1  0
 20 21  1  0
 19 22  1  0
 22 23  1  0
 23 24  1  0
 22 25  2  0
 15 26  1  0
 26 27  2  0
 27  6  1  0
 27 12  1  0
 25 16  1  0
  1 28  1  0
  1 29  1  0
  1 30  1  0
  2 31  1  0
  2 32  1  0
  9 33  1  0
  9 34  1  0
 11 35  1  0
 13 36  1  0
 14 37  1  0
 17 38  1  0
 18 39  1  0
 21 40  1  0
 21 41  1  0
 21 42  1  0
 24 43  1  0
 24 44  1  0
 24 45  1  0
 25 46  1  0
 26 47  1  0
M  END
>  <UniqueID>  (13) 
13

>  <SMILES>  (13) 
CCOC(=O)n1c(C(N)=O)cc2ccc(-c3ccc(OC)c(OC)c3)cc21

>  <Energy>  (13) 
88.68979286388233

>  <Genealogy>  (13) 
CCOC(=O)n1c(C(N)=O)cc2ccc(-c3ccc(OC)c(OC)c3)cc21 (3D coordinates assigned)
CCOC(=O)n1c(C(N)=O)cc2ccc(-c3ccc(OC)c(OC)c3)cc21 (optimized conformer: 88.68979286388233 kcal/mol)

>  <smiles>  (13) 
CCOC(=O)n1c(C(N)=O)cc2ccc(-c3ccc(OC)c(OC)c3)cc21

>  <score_type>  (13) 
oracle

>  <origin>  (13) 
adg

>  <m_score__min__energy>  (13) 
-7.3200000000000003

>  <m_primary>  (13) 
energy

$$$$
13:0
     RDKit          3D

 31 32  0  0  0  0  0  0  0  0999 V2000
  139.1570  149.2570  131.7820 C   0  0  0  0  0  0  0  0  0  0  0  0
  140.3210  150.1130  132.1810 C   0  0  0  0  0  0  0  0  0  0  0  0
  141.6010  149.5330  132.3600 C   0  0  0  0  0  0  0  0  0  0  0  0
  142.6960  150.3200  132.7560 C   0  0  0  0  0  0  0  0  0  0  0  0
  142.4740  151.6760  132.9840 C   0  0  0  0  0  0  0  0  0  0  0  0
  143.3550  152.6670  133.3540 C   0  0  0  0  0  0  0  0  0  0  0  0
  142.5910  153.8300  133.4320 C   0  0  0  0  0  0  0  0  0  0  0  0
  143.1320  155.1310  133.8790 C   0  0  0  0  0  0  0  0  0  0  0  0
  143.1540  156.2360  132.9770 N   0  0  0  0  0  0  0  0  0  0  0  0
  143.6050  155.2710  135.0360 O   0  0  0  0  0  0  0  0  0  0  0  0
  141.2900  153.5680  133.1180 N   0  0  0  0  0  0  0  0  0  0  0  0
  140.1990  154.4960  133.0220 C   0  0  0  0  0  0  0  0  0  0  0  0
  139.0120  154.0690  132.9680 O   0  0  0  0  0  0  0  0  0  0  0  0
  140.4600  155.8710  133.0080 O   0  0  0  0  0  0  0  0  0  0  0  0
  139.7080  156.8340  133.7430 C   0  0  2  0  0  0  0  0  0  0  0  0
  139.0150  158.0000  132.5880 Cl  0  0  0  0  0  0  0  0  0  0  0  0
  140.6110  157.5810  134.7250 C   0  0  0  0  0  0  0  0  0  0  0  0
  139.7940  157.8580  136.2840 Cl  0  0  0  0  0  0  0  0  0  0  0  0
  141.2350  152.2460  132.8490 C   0  0  0  0  0  0  0  0  0  0  0  0
  140.1310  151.4880  132.4370 C   0  0  0  0  0  0  0  0  0  0  0  0
  138.6499  148.8841  132.6841 H   0  0  0  0  0  0  0  0  0  0  0  0
  138.4514  149.8529  131.1846 H   0  0  0  0  0  0  0  0  0  0  0  0
  139.5156  148.4058  131.1846 H   0  0  0  0  0  0  0  0  0  0  0  0
  141.7393  148.4555  132.1873 H   0  0  0  0  0  0  0  0  0  0  0  0
  143.6960  149.8793  132.8818 H   0  0  0  0  0  0  0  0  0  0  0  0
  144.4329  152.5630  133.5471 H   0  0  0  0  0  0  0  0  0  0  0  0
  142.4260  156.3370  132.2350 H   0  0  0  0  0  0  0  0  0  0  0  0
  138.9148  156.3252  134.3104 H   0  0  0  0  0  0  0  0  0  0  0  0
  141.5196  156.9857  134.8986 H   0  0  0  0  0  0  0  0  0  0  0  0
  140.8607  158.5591  134.2881 H   0  0  0  0  0  0  0  0  0  0  0  0
  139.1413  151.9527  132.3161 H   0  0  0  0  0  0  0  0  0  0  0  0
  1  2  1  0
  2  3  2  0
  3  4  1  0
  4  5  2  0
  5  6  1  0
  6  7  2  0
  7  8  1  0
  8  9  1  0
  8 10  2  0
  7 11  1  0
 11 12  1  0
 12 13  2  0
 12 14  1  0
 14 15  1  0
 15 16  1  0
 15 17  1  0
 17 18  1  0
 11 19  1  0
 19 20  2  0
 20  2  1  0
 19  5  1  0
  1 21  1  0
  1 22  1  0
  1 23  1  0
  3 24  1  0
  4 25  1  0
  6 26  1  0
  9 27  1  0
 15 28  1  1
 17 29  1  0
 17 30  1  0
 20 31  1  0
M  CHG  1   9  -1
M  END
>  <UniqueID>  (14) 
14

>  <SMILES>  (14) 
Cc1ccc2cc(C([NH-])=O)n(C(=O)O[C@H](Cl)CCl)c2c1

>  <Energy>  (14) 
66.20409752912529

>  <Genealogy>  (14) 
Cc1ccc2cc(C([NH-])=O)n(C(=O)OC(Cl)CCl)c2c1 (protonated)
Cc1ccc2cc(C([NH-])=O)n(C(=O)O[C@H](Cl)CCl)c2c1 (chirality)
Cc1ccc2cc(C([NH-])=O)n(C(=O)O[C@H](Cl)CCl)c2c1 (3D coordinates assigned)
Cc1ccc2cc(C([NH-])=O)n(C(=O)O[C@H](Cl)CCl)c2c1 (optimized conformer: 66.20409752912529 kcal/mol)

>  <smiles>  (14) 
Cc1ccc2cc(C(N)=O)n(C(=O)OC(Cl)CCl)c2c1

>  <score_type>  (14) 
oracle

>  <origin>  (14) 
adg

>  <m_score__min__energy>  (14) 
-6.54

>  <m_primary>  (14) 
energy

$$$$
14:0
     RDKit          3D

 28 29  0  0  0  0  0  0  0  0999 V2000
  148.8480  151.9970  132.9860 C   0  0  0  0  0  0  0  0  0  0  0  0
  148.2110  153.2100  132.6050 O   0  0  0  0  0  0  0  0  0  0  0  0
  148.8300  154.4570  132.7240 C   0  0  0  0  0  0  0  0  0  0  0  0
  149.9770  154.6470  132.2340 O   0  0  0  0  0  0  0  0  0  0  0  0
  148.1470  155.5330  133.3860 N   0  0  0  0  0  0  0  0  0  0  0  0
  147.2930  155.4580  134.4470 C   0  0  0  0  0  0  0  0  0  0  0  0
  146.7580  154.2170  135.0460 C   0  0  0  0  0  0  0  0  0  0  0  0
  145.9660  153.3130  134.2800 N   0  0  0  0  0  0  0  0  0  0  0  0
  146.9630  153.9750  136.2650 O   0  0  0  0  0  0  0  0  0  0  0  0
  146.9120  156.7330  134.8590 C   0  0  0  0  0  0  0  0  0  0  0  0
  147.5550  157.5990  134.0050 C   0  0  0  0  0  0  0  0  0  0  0  0
  147.5470  158.9910  133.9710 C   0  0  0  0  0  0  0  0  0  0  0  0
  148.3360  159.6290  132.9990 C   0  0  0  0  0  0  0  0  0  0  0  0
  149.1100  158.8710  132.0850 C   0  0  0  0  0  0  0  0  0  0  0  0
  149.9850  159.5650  131.0830 C   0  0  0  0  0  0  0  0  0  0  0  0
  148.9980  160.1270  129.7120 Cl  0  0  0  0  0  0  0  0  0  0  0  0
  149.1030  157.4610  132.1600 C   0  0  0  0  0  0  0  0  0  0  0  0
  148.2930  156.8510  133.1260 C   0  0  0  0  0  0  0  0  0  0  0  0
  148.8831  151.9302  134.0834 H   0  0  0  0  0  0  0  0  0  0  0  0
  148.2817  151.1437  132.5846 H   0  0  0  0  0  0  0  0  0  0  0  0
  149.8720  151.9788  132.5846 H   0  0  0  0  0  0  0  0  0  0  0  0
  146.4100  152.5550  133.7150 H   0  0  0  0  0  0  0  0  0  0  0  0
  146.2400  156.9923  135.6903 H   0  0  0  0  0  0  0  0  0  0  0  0
  146.9423  159.5726  134.6824 H   0  0  0  0  0  0  0  0  0  0  0  0
  148.3532  160.7276  132.9469 H   0  0  0  0  0  0  0  0  0  0  0  0
  150.4737  160.4276  131.5596 H   0  0  0  0  0  0  0  0  0  0  0  0
  150.7490  158.8627  130.7182 H   0  0  0  0  0  0  0  0  0  0  0  0
  149.7182  156.8569  131.4769 H   0  0  0  0  0  0  0  0  0  0  0  0
  1  2  1  0
  2  3  1  0
  3  4  2  0
  3  5  1  0
  5  6  1  0
  6  7  1  0
  7  8  1  0
  7  9  2  0
  6 10  2  0
 10 11  1  0
 11 12  2  0
 12 13  1  0
 13 14  2  0
 14 15  1  0
 15 16  1  0
 14 17  1  0
 17 18  2  0
 18  5  1  0
 18 11  1  0
  1 19  1  0
  1 20  1  0
  1 21  1  0
  8 22  1  0
 10 23  1  0
 12 24  1  0
 13 25  1  0
 15 26  1  0
 15 27  1  0
 17 28  1  0
M  CHG  1   8  -1
M  END
>  <UniqueID>  (15) 
15

>  <SMILES>  (15) 
COC(=O)n1c(C([NH-])=O)cc2ccc(CCl)cc21

>  <Energy>  (15) 
64.59915911091518

>  <Genealogy>  (15) 
COC(=O)n1c(C([NH-])=O)cc2ccc(CCl)cc21 (protonated)
COC(=O)n1c(C([NH-])=O)cc2ccc(CCl)cc21 (3D coordinates assigned)
COC(=O)n1c(C([NH-])=O)cc2ccc(CCl)cc21 (optimized conformer: 64.59915911091518 kcal/mol)

>  <smiles>  (15) 
COC(=O)n1c(C(N)=O)cc2ccc(CCl)cc21

>  <score_type>  (15) 
oracle

>  <origin>  (15) 
adg

>  <m_score__min__energy>  (15) 
-5.8899999999999997

>  <m_primary>  (15) 
energy

$$$$
15:0
     RDKit          3D

 59 61  0  0  0  0  0  0  0  0999 V2000
  139.8280  155.8880  132.9870 C   0  0  0  0  0  0  0  0  0  0  0  0
  140.7950  156.4080  133.7550 C   0  0  0  0  0  0  0  0  0  0  0  0
  140.6480  157.7250  134.5090 C   0  0  0  0  0  0  0  0  0  0  0  0
  141.5300  157.7290  135.7780 C   0  0  0  0  0  0  0  0  0  0  0  0
  139.1690  157.8780  134.9510 C   0  0  0  0  0  0  0  0  0  0  0  0
  141.0770  158.8410  133.6180 N   0  0  0  0  0  0  0  0  0  0  0  0
  140.0840  159.6760  132.9190 C   0  0  0  0  0  0  0  0  0  0  0  0
  139.6800  159.0300  131.5860 C   0  0  0  0  0  0  0  0  0  0  0  0
  139.0760  160.0050  130.5870 C   0  0  0  0  0  0  0  0  0  0  0  0
  138.1900  158.9820  131.2780 C   0  0  0  0  0  0  0  0  0  0  0  0
  142.4450  159.2880  133.5760 C   0  0  0  0  0  0  0  0  0  0  0  0
  142.7460  160.6560  133.7690 C   0  0  0  0  0  0  0  0  0  0  0  0
  144.0770  161.1060  133.7350 C   0  0  0  0  0  0  0  0  0  0  0  0
  145.0770  160.1650  133.5030 C   0  0  0  0  0  0  0  0  0  0  0  0
  146.4430  160.3190  133.4510 C   0  0  0  0  0  0  0  0  0  0  0  0
  146.9500  159.0440  133.2080 C   0  0  0  0  0  0  0  0  0  0  0  0
  148.3870  158.7680  133.0030 C   0  0  0  0  0  0  0  0  0  0  0  0
  148.8660  158.2870  131.7480 N   0  0  0  0  0  0  0  0  0  0  0  0
  149.2070  158.9930  133.9310 O   0  0  0  0  0  0  0  0  0  0  0  0
  145.9390  158.1350  133.1200 N   0  0  0  0  0  0  0  0  0  0  0  0
  146.0510  156.7090  132.9890 C   0  0  0  0  0  0  0  0  0  0  0  0
  146.9920  156.2160  132.3120 O   0  0  0  0  0  0  0  0  0  0  0  0
  145.0910  155.8850  133.5970 O   0  0  0  0  0  0  0  0  0  0  0  0
  144.6160  154.6240  133.1050 C   0  0  0  0  0  0  0  0  0  0  0  0
  145.7180  153.5890  133.3750 C   0  0  0  0  0  0  0  0  0  0  0  0
  143.3390  154.2010  133.8530 C   0  0  0  0  0  0  0  0  0  0  0  0
  144.3600  154.6930  131.5870 C   0  0  0  0  0  0  0  0  0  0  0  0
  144.7980  158.8360  133.3020 C   0  0  0  0  0  0  0  0  0  0  0  0
  143.4820  158.3600  133.3490 C   0  0  0  0  0  0  0  0  0  0  0  0
  139.9927  154.9329  132.4668 H   0  0  0  0  0  0  0  0  0  0  0  0
  138.8695  156.4162  132.8767 H   0  0  0  0  0  0  0  0  0  0  0  0
  141.7427  155.8570  133.8461 H   0  0  0  0  0  0  0  0  0  0  0  0
  140.8877  157.7261  136.6710 H   0  0  0  0  0  0  0  0  0  0  0  0
  142.1691  156.8337  135.7831 H   0  0  0  0  0  0  0  0  0  0  0  0
  142.1610  158.6300  135.7831 H   0  0  0  0  0  0  0  0  0  0  0  0
  139.1134  157.8838  136.0496 H   0  0  0  0  0  0  0  0  0  0  0  0
  138.7649  158.8228  134.5584 H   0  0  0  0  0  0  0  0  0  0  0  0
  138.5800  157.0360  134.5584 H   0  0  0  0  0  0  0  0  0  0  0  0
  139.1920  159.7849  133.5534 H   0  0  0  0  0  0  0  0  0  0  0  0
  140.5281  160.6617  132.7161 H   0  0  0  0  0  0  0  0  0  0  0  0
  140.4872  158.2827  131.5794 H   0  0  0  0  0  0  0  0  0  0  0  0
  138.9881  161.0710  130.8436 H   0  0  0  0  0  0  0  0  0  0  0  0
  139.2829  160.2736  129.5406 H   0  0  0  0  0  0  0  0  0  0  0  0
  137.4612  159.3075  132.0349 H   0  0  0  0  0  0  0  0  0  0  0  0
  137.4905  158.2036  130.9391 H   0  0  0  0  0  0  0  0  0  0  0  0
  141.9318  161.3739  133.9472 H   0  0  0  0  0  0  0  0  0  0  0  0
  144.3211  162.1678  133.8868 H   0  0  0  0  0  0  0  0  0  0  0  0
  147.0140  161.2510  133.5750 H   0  0  0  0  0  0  0  0  0  0  0  0
  148.5900  157.3450  131.3930 H   0  0  0  0  0  0  0  0  0  0  0  0
  145.8482  153.4667  134.4604 H   0  0  0  0  0  0  0  0  0  0  0  0
  145.4327  152.6248  132.9290 H   0  0  0  0  0  0  0  0  0  0  0  0
  146.6624  153.9342  132.9290 H   0  0  0  0  0  0  0  0  0  0  0  0
  143.5132  154.2587  134.9376 H   0  0  0  0  0  0  0  0  0  0  0  0
  142.5132  154.8736  133.5780 H   0  0  0  0  0  0  0  0  0  0  0  0
  143.0780  153.1684  133.5780 H   0  0  0  0  0  0  0  0  0  0  0  0
  143.3127  154.9753  131.4042 H   0  0  0  0  0  0  0  0  0  0  0  0
  145.0260  155.4437  131.1366 H   0  0  0  0  0  0  0  0  0  0  0  0
  144.5586  153.7093  131.1366 H   0  0  0  0  0  0  0  0  0  0  0  0
  143.2630  157.2907  133.2125 H   0  0  0  0  0  0  0  0  0  0  0  0
  1  2  2  0
  2  3  1  0
  3  4  1  0
  3  5  1  0
  3  6  1  0
  6  7  1  0
  7  8  1  0
  8  9  1  0
  9 10  1  0
  6 11  1  0
 11 12  2  0
 12 13  1  0
 13 14  2  0
 14 15  1  0
 15 16  2  0
 16 17  1  0
 17 18  1  0
 17 19  2  0
 16 20  1  0
 20 21  1  0
 21 22  2  0
 21 23  1  0
 23 24  1  0
 24 25  1  0
 24 26  1  0
 24 27  1  0
 20 28  1  0
 28 29  2  0
 10  8  1  0
 29 11  1  0
 28 14  1  0
  1 30  1  0
  1 31  1  0
  2 32  1  0
  4 33  1  0
  4 34  1  0
  4 35  1  0
  5 36  1  0
  5 37  1  0
  5 38  1  0
  7 39  1  0
  7 40  1  0
  8 41  1  0
  9 42  1  0
  9 43  1  0
 10 44  1  0
 10 45  1  0
 12 46  1  0
 13 47  1  0
 15 48  1  0
 18 49  1  0
 25 50  1  0
 25 51  1  0
 25 52  1  0
 26 53  1  0
 26 54  1  0
 26 55  1  0
 27 56  1  0
 27 57  1  0
 27 58  1  0
 29 59  1  0
M  CHG  1  18  -1
M  END
>  <UniqueID>  (16) 
16

>  <SMILES>  (16) 
C=CC(C)(C)N(CC1CC1)c1ccc2cc(C([NH-])=O)n(C(=O)OC(C)(C)C)c2c1

>  <Energy>  (16) 
360.5996637212666

>  <Genealogy>  (16) 
C=CC(C)(C)N(CC1CC1)c1ccc2cc(C([NH-])=O)n(C(=O)OC(C)(C)C)c2c1 (protonated)
C=CC(C)(C)N(CC1CC1)c1ccc2cc(C([NH-])=O)n(C(=O)OC(C)(C)C)c2c1 (3D coordinates assigned)
C=CC(C)(C)N(CC1CC1)c1ccc2cc(C([NH-])=O)n(C(=O)OC(C)(C)C)c2c1 (nonaromatic ring conformer: 360.5996637212666 kcal/mol)

>  <smiles>  (16) 
C=CC(C)(C)N(CC1CC1)c1ccc2cc(C(N)=O)n(C(=O)OC(C)(C)C)c2c1

>  <score_type>  (16) 
oracle

>  <origin>  (16) 
adg

>  <m_score__min__energy>  (16) 
-8.7100000000000009

>  <m_primary>  (16) 
energy

$$$$
16:0
     RDKit          3D

 37 38  0  0  0  0  0  0  0  0999 V2000
  150.6990  150.1370  130.7040 C   0  0  0  0  0  0  0  0  0  0  0  0
  149.6580  150.8640  131.4910 C   0  0  0  0  0  0  0  0  0  0  0  0
  148.6200  150.2550  131.8670 O   0  0  0  0  0  0  0  0  0  0  0  0
  149.8520  152.2420  131.8300 N   0  0  0  0  0  0  0  0  0  0  0  0
  148.8570  152.9840  132.6040 C   0  0  0  0  0  0  0  0  0  0  0  0
  149.1750  154.4820  132.6100 C   0  0  0  0  0  0  0  0  0  0  0  0
  147.9300  155.2870  132.8650 C   0  0  0  0  0  0  0  0  0  0  0  0
  146.7200  154.6380  133.2170 C   0  0  0  0  0  0  0  0  0  0  0  0
  145.5580  155.3820  133.4840 C   0  0  0  0  0  0  0  0  0  0  0  0
  145.6400  156.7680  133.4040 C   0  0  0  0  0  0  0  0  0  0  0  0
  144.6730  157.7280  133.6040 C   0  0  0  0  0  0  0  0  0  0  0  0
  145.3150  158.9480  133.3980 C   0  0  0  0  0  0  0  0  0  0  0  0
  144.6630  160.2590  133.5970 C   0  0  0  0  0  0  0  0  0  0  0  0
  145.4510  161.4020  133.9230 N   0  0  0  0  0  0  0  0  0  0  0  0
  143.4190  160.3880  133.4500 O   0  0  0  0  0  0  0  0  0  0  0  0
  146.6230  158.7490  133.0740 N   0  0  0  0  0  0  0  0  0  0  0  0
  147.6130  159.7320  132.7330 C   0  0  0  0  0  0  0  0  0  0  0  0
  148.1280  159.8510  131.3340 C   0  0  0  0  0  0  0  0  0  0  0  0
  148.1010  160.4680  133.6330 O   0  0  0  0  0  0  0  0  0  0  0  0
  146.8080  157.4120  133.0880 C   0  0  0  0  0  0  0  0  0  0  0  0
  147.9770  156.6990  132.8070 C   0  0  0  0  0  0  0  0  0  0  0  0
  151.4025  149.6457  131.3923 H   0  0  0  0  0  0  0  0  0  0  0  0
  150.2163  149.3786  130.0701 H   0  0  0  0  0  0  0  0  0  0  0  0
  151.2448  150.8513  130.0701 H   0  0  0  0  0  0  0  0  0  0  0  0
  150.7270  152.7170  131.5130 H   0  0  0  0  0  0  0  0  0  0  0  0
  147.8640  152.8285  132.1571 H   0  0  0  0  0  0  0  0  0  0  0  0
  148.8735  152.6172  133.6409 H   0  0  0  0  0  0  0  0  0  0  0  0
  149.9098  154.6923  133.4011 H   0  0  0  0  0  0  0  0  0  0  0  0
  149.5829  154.7617  131.6274 H   0  0  0  0  0  0  0  0  0  0  0  0
  146.6902  153.5403  133.2819 H   0  0  0  0  0  0  0  0  0  0  0  0
  144.6135  154.8838  133.7479 H   0  0  0  0  0  0  0  0  0  0  0  0
  143.6179  157.5663  133.8699 H   0  0  0  0  0  0  0  0  0  0  0  0
  146.2970  161.6470  133.3620 H   0  0  0  0  0  0  0  0  0  0  0  0
  149.1995  160.0986  131.3575 H   0  0  0  0  0  0  0  0  0  0  0  0
  147.9839  158.8959  130.8077 H   0  0  0  0  0  0  0  0  0  0  0  0
  147.5794  160.6460  130.8077 H   0  0  0  0  0  0  0  0  0  0  0  0
  148.9090  157.2226  132.5476 H   0  0  0  0  0  0  0  0  0  0  0  0
  1  2  1  0
  2  3  2  0
  2  4  1  0
  4  5  1  0
  5  6  1  0
  6  7  1  0
  7  8  2  0
  8  9  1  0
  9 10  2  0
 10 11  1  0
 11 12  2  0
 12 13  1  0
 13 14  1  0
 13 15  2  0
 12 16  1  0
 16 17  1  0
 17 18  1  0
 17 19  2  0
 16 20  1  0
 20 21  2  0
 21  7  1  0
 20 10  1  0
  1 22  1  0
  1 23  1  0
  1 24  1  0
  4 25  1  0
  5 26  1  0
  5 27  1  0
  6 28  1  0
  6 29  1  0
  8 30  1  0
  9 31  1  0
 11 32  1  0
 14 33  1  0
 18 34  1  0
 18 35  1  0
 18 36  1  0
 21 37  1  0
M  CHG  1  14  -1
M  END
>  <UniqueID>  (17) 
17

>  <SMILES>  (17) 
CC(=O)NCCc1ccc2cc(C([NH-])=O)n(C(C)=O)c2c1

>  <Energy>  (17) 
68.83134661457449

>  <Genealogy>  (17) 
CC(=O)NCCc1ccc2cc(C([NH-])=O)n(C(C)=O)c2c1 (protonated)
CC(=O)NCCc1ccc2cc(C([NH-])=O)n(C(C)=O)c2c1 (3D coordinates assigned)
CC(=O)NCCc1ccc2cc(C([NH-])=O)n(C(C)=O)c2c1 (optimized conformer: 68.83134661457449 kcal/mol)

>  <smiles>  (17) 
CC(=O)NCCc1ccc2cc(C(N)=O)n(C(C)=O)c2c1

>  <score_type>  (17) 
oracle

>  <origin>  (17) 
adg

>  <m_score__min__energy>  (17) 
-7.4699999999999998

>  <m_primary>  (17) 
energy

$$$$
17:0
     RDKit          3D

 43 44  0  0  0  0  0  0  0  0999 V2000
  148.9980  160.5430  130.5220 C   0  0  0  0  0  0  0  0  0  0  0  0
  148.5970  159.3530  131.1880 O   0  0  0  0  0  0  0  0  0  0  0  0
  148.2660  159.3240  132.5460 C   0  0  0  0  0  0  0  0  0  0  0  0
  148.9130  160.0260  133.3720 O   0  0  0  0  0  0  0  0  0  0  0  0
  147.1840  158.4960  133.0030 N   0  0  0  0  0  0  0  0  0  0  0  0
  145.9210  158.8870  133.3330 C   0  0  0  0  0  0  0  0  0  0  0  0
  145.4490  160.2810  133.4460 C   0  0  0  0  0  0  0  0  0  0  0  0
  146.3560  161.3490  133.7300 N   0  0  0  0  0  0  0  0  0  0  0  0
  144.2180  160.5280  133.3460 O   0  0  0  0  0  0  0  0  0  0  0  0
  145.1180  157.7840  133.6060 C   0  0  0  0  0  0  0  0  0  0  0  0
  145.9380  156.6900  133.4450 C   0  0  0  0  0  0  0  0  0  0  0  0
  145.6520  155.3330  133.5700 C   0  0  0  0  0  0  0  0  0  0  0  0
  146.6800  154.4160  133.3010 C   0  0  0  0  0  0  0  0  0  0  0  0
  147.9660  154.8670  132.9070 C   0  0  0  0  0  0  0  0  0  0  0  0
  149.0500  153.8740  132.5750 C   0  0  0  0  0  0  0  0  0  0  0  0
  148.7110  152.4620  133.0760 C   0  0  0  0  0  0  0  0  0  0  0  0
  148.4560  151.4790  131.9110 C   0  0  0  0  0  0  0  0  0  0  0  0
  149.6010  150.5930  131.6000 N   0  0  0  0  0  0  0  0  0  0  0  0
  150.0380  150.6920  130.1990 C   0  0  0  0  0  0  0  0  0  0  0  0
  150.7320  150.7640  132.5250 C   0  0  0  0  0  0  0  0  0  0  0  0
  148.2160  156.2520  132.7840 C   0  0  0  0  0  0  0  0  0  0  0  0
  147.1790  157.1450  133.0800 C   0  0  0  0  0  0  0  0  0  0  0  0
  149.2566  161.3104  131.2664 H   0  0  0  0  0  0  0  0  0  0  0  0
  149.8750  160.3329  129.8921 H   0  0  0  0  0  0  0  0  0  0  0  0
  148.1727  160.9065  129.8921 H   0  0  0  0  0  0  0  0  0  0  0  0
  146.0100  162.3330  133.7660 H   0  0  0  0  0  0  0  0  0  0  0  0
  147.3490  161.1580  133.9870 H   0  0  0  0  0  0  0  0  0  0  0  0
  144.0552  157.7858  133.8898 H   0  0  0  0  0  0  0  0  0  0  0  0
  144.6509  154.9901  133.8704 H   0  0  0  0  0  0  0  0  0  0  0  0
  146.4866  153.3374  133.3966 H   0  0  0  0  0  0  0  0  0  0  0  0
  149.1796  153.8417  131.4831 H   0  0  0  0  0  0  0  0  0  0  0  0
  149.9735  154.1994  133.0762 H   0  0  0  0  0  0  0  0  0  0  0  0
  149.5517  152.0878  133.6786 H   0  0  0  0  0  0  0  0  0  0  0  0
  147.7898  152.5261  133.6738 H   0  0  0  0  0  0  0  0  0  0  0  0
  147.5941  150.8485  132.1746 H   0  0  0  0  0  0  0  0  0  0  0  0
  148.2790  152.0917  131.0147 H   0  0  0  0  0  0  0  0  0  0  0  0
  151.1103  150.9349  130.1657 H   0  0  0  0  0  0  0  0  0  0  0  0
  149.8637  149.7316  129.6918 H   0  0  0  0  0  0  0  0  0  0  0  0
  149.4668  151.4835  129.6918 H   0  0  0  0  0  0  0  0  0  0  0  0
  150.3691  150.7091  133.5620 H   0  0  0  0  0  0  0  0  0  0  0  0
  151.4706  149.9673  132.3523 H   0  0  0  0  0  0  0  0  0  0  0  0
  151.2020  151.7434  132.3523 H   0  0  0  0  0  0  0  0  0  0  0  0
  149.2018  156.6200  132.4633 H   0  0  0  0  0  0  0  0  0  0  0  0
  1  2  1  0
  2  3  1  0
  3  4  2  0
  3  5  1  0
  5  6  1  0
  6  7  1  0
  7  8  1  0
  7  9  2  0
  6 10  2  0
 10 11  1  0
 11 12  2  0
 12 13  1  0
 13 14  2  0
 14 15  1  0
 15 16  1  0
 16 17  1  0
 17 18  1  0
 18 19  1  0
 18 20  1  0
 14 21  1  0
 21 22  2  0
 22  5  1  0
 22 11  1  0
  1 23  1  0
  1 24  1  0
  1 25  1  0
  8 26  1  0
  8 27  1  0
 10 28  1  0
 12 29  1  0
 13 30  1  0
 15 31  1  0
 15 32  1  0
 16 33  1  0
 16 34  1  0
 17 35  1  0
 17 36  1  0
 19 37  1  0
 19 38  1  0
 19 39  1  0
 20 40  1  0
 20 41  1  0
 20 42  1  0
 21 43  1  0
M  END
>  <UniqueID>  (18) 
18

>  <SMILES>  (18) 
COC(=O)n1c(C(N)=O)cc2ccc(CCCN(C)C)cc21

>  <Energy>  (18) 
78.93293451774616

>  <Genealogy>  (18) 
COC(=O)n1c(C(N)=O)cc2ccc(CCCN(C)C)cc21 (3D coordinates assigned)
COC(=O)n1c(C(N)=O)cc2ccc(CCCN(C)C)cc21 (optimized conformer: 78.93293451774616 kcal/mol)

>  <smiles>  (18) 
COC(=O)n1c(C(N)=O)cc2ccc(CCCN(C)C)cc21

>  <score_type>  (18) 
oracle

>  <origin>  (18) 
adg

>  <m_score__min__energy>  (18) 
-6.8700000000000001

>  <m_primary>  (18) 
energy

$$$$
18:0
     RDKit          3D

 42 44  0  0  0  0  0  0  0  0999 V2000
  149.5450  161.3040  130.3970 C   0  0  0  0  0  0  0  0  0  0  0  0
  149.6120  159.7850  130.2930 C   0  0  0  0  0  0  0  0  0  0  0  0
  148.5950  159.1680  131.1370 N   0  0  0  0  0  0  0  0  0  0  0  0
  148.8760  158.1440  132.0990 C   0  0  0  0  0  0  0  0  0  0  0  0
  150.0500  157.7080  132.2320 O   0  0  0  0  0  0  0  0  0  0  0  0
  147.8140  157.6120  132.9090 N   0  0  0  0  0  0  0  0  0  0  0  0
  146.7160  158.2710  133.3740 C   0  0  0  0  0  0  0  0  0  0  0  0
  146.4790  159.7250  133.2880 C   0  0  0  0  0  0  0  0  0  0  0  0
  147.5460  160.6360  133.0200 N   0  0  0  0  0  0  0  0  0  0  0  0
  145.3230  160.1780  133.5080 O   0  0  0  0  0  0  0  0  0  0  0  0
  145.8430  157.3880  134.0050 C   0  0  0  0  0  0  0  0  0  0  0  0
  146.4520  156.1570  133.9250 C   0  0  0  0  0  0  0  0  0  0  0  0
  146.0170  154.9140  134.3740 C   0  0  0  0  0  0  0  0  0  0  0  0
  146.8310  153.8000  134.1180 C   0  0  0  0  0  0  0  0  0  0  0  0
  148.0560  153.9410  133.4180 C   0  0  0  0  0  0  0  0  0  0  0  0
  148.8660  152.7830  133.1420 N   0  0  0  0  0  0  0  0  0  0  0  0
  149.4510  152.6000  131.8080 C   0  0  0  0  0  0  0  0  0  0  0  0
  150.0100  151.1830  131.6620 C   0  0  0  0  0  0  0  0  0  0  0  0
  149.1510  150.2720  132.3120 O   0  0  0  0  0  0  0  0  0  0  0  0
  149.2820  150.3950  133.7180 C   0  0  0  0  0  0  0  0  0  0  0  0
  149.2310  151.8580  134.2240 C   0  0  0  0  0  0  0  0  0  0  0  0
  148.4590  155.2200  132.9700 C   0  0  0  0  0  0  0  0  0  0  0  0
  147.6380  156.3170  133.2560 C   0  0  0  0  0  0  0  0  0  0  0  0
  149.5320  161.5987  131.4567 H   0  0  0  0  0  0  0  0  0  0  0  0
  150.4246  161.7444  129.9047 H   0  0  0  0  0  0  0  0  0  0  0  0
  148.6300  161.6652  129.9047 H   0  0  0  0  0  0  0  0  0  0  0  0
  149.4443  159.4863  129.2477 H   0  0  0  0  0  0  0  0  0  0  0  0
  150.6040  159.4496  130.6298 H   0  0  0  0  0  0  0  0  0  0  0  0
  148.5380  160.3120  132.9980 H   0  0  0  0  0  0  0  0  0  0  0  0
  147.3520  161.6570  132.9220 H   0  0  0  0  0  0  0  0  0  0  0  0
  144.8737  157.6244  134.4683 H   0  0  0  0  0  0  0  0  0  0  0  0
  145.0641  154.8078  134.9132 H   0  0  0  0  0  0  0  0  0  0  0  0
  146.5148  152.8051  134.4646 H   0  0  0  0  0  0  0  0  0  0  0  0
  148.6749  152.7640  131.0460 H   0  0  0  0  0  0  0  0  0  0  0  0
  150.2695  153.3226  131.6745 H   0  0  0  0  0  0  0  0  0  0  0  0
  150.0803  150.9241  130.5952 H   0  0  0  0  0  0  0  0  0  0  0  0
  151.0104  151.1336  132.1166 H   0  0  0  0  0  0  0  0  0  0  0  0
  148.4632  149.8348  134.1931 H   0  0  0  0  0  0  0  0  0  0  0  0
  150.2728  149.9980  133.9838 H   0  0  0  0  0  0  0  0  0  0  0  0
  148.4839  151.9336  135.0278 H   0  0  0  0  0  0  0  0  0  0  0  0
  150.2295  152.1329  134.5948 H   0  0  0  0  0  0  0  0  0  0  0  0
  149.3965  155.3500  132.4094 H   0  0  0  0  0  0  0  0  0  0  0  0
  1  2  1  0
  2  3  1  0
  3  4  1  0
  4  5  2  0
  4  6  1  0
  6  7  1  0
  7  8  1  0
  8  9  1  0
  8 10  2  0
  7 11  2  0
 11 12  1  0
 12 13  2  0
 13 14  1  0
 14 15  2  0
 15 16  1  0
 16 17  1  0
 17 18  1  0
 18 19  1  0
 19 20  1  0
 20 21  1  0
 15 22  1  0
 22 23  2  0
 23  6  1  0
 23 12  1  0
 21 16  1  0
  1 24  1  0
  1 25  1  0
  1 26  1  0
  2 27  1  0
  2 28  1  0
  9 29  1  0
  9 30  1  0
 11 31  1  0
 13 32  1  0
 14 33  1  0
 17 34  1  0
 17 35  1  0
 18 36  1  0
 18 37  1  0
 20 38  1  0
 20 39  1  0
 21 40  1  0
 21 41  1  0
 22 42  1  0
M  CHG  1   3  -1
M  END
>  <UniqueID>  (19) 
19

>  <SMILES>  (19) 
CC[N-]C(=O)n1c(C(N)=O)cc2ccc(N3CCOCC3)cc21

>  <Energy>  (19) 
88.99456739373703

>  <Genealogy>  (19) 
CC[N-]C(=O)n1c(C(N)=O)cc2ccc(N3CCOCC3)cc21 (protonated)
CC[N-]C(=O)n1c(C(N)=O)cc2ccc(N3CCOCC3)cc21 (3D coordinates assigned)
CC[N-]C(=O)n1c(C(N)=O)cc2ccc(N3CCOCC3)cc21 (nonaromatic ring conformer: 88.99456739373703 kcal/mol)

>  <smiles>  (19) 
CCNC(=O)n1c(C(N)=O)cc2ccc(N3CCOCC3)cc21

>  <score_type>  (19) 
oracle

>  <origin>  (19) 
adg

>  <m_score__min__energy>  (19) 
-7.5700000000000003

>  <m_primary>  (19) 
energy

$$$$
19:0
     RDKit          3D

 38 39  0  0  0  0  0  0  0  0999 V2000
  149.3050  158.2320  131.8520 C   0  0  0  0  0  0  0  0  0  0  0  0
  148.8090  159.4100  131.0080 C   0  0  0  0  0  0  0  0  0  0  0  0
  149.9580  160.1110  130.2780 C   0  0  0  0  0  0  0  0  0  0  0  0
  148.0440  160.3550  131.8240 N   0  0  0  0  0  0  0  0  0  0  0  0
  147.6660  160.1760  133.1960 C   0  0  0  0  0  0  0  0  0  0  0  0
  148.4870  159.7230  134.0380 O   0  0  0  0  0  0  0  0  0  0  0  0
  146.2650  160.4780  133.6170 C   0  0  0  0  0  0  0  0  0  0  0  0
  145.4170  159.2440  133.4890 C   0  0  0  0  0  0  0  0  0  0  0  0
  146.0260  157.9640  133.4770 C   0  0  0  0  0  0  0  0  0  0  0  0
  145.2430  156.8010  133.4210 C   0  0  0  0  0  0  0  0  0  0  0  0
  143.8590  156.9460  133.3780 C   0  0  0  0  0  0  0  0  0  0  0  0
  142.8750  155.9870  133.3530 C   0  0  0  0  0  0  0  0  0  0  0  0
  141.6780  156.6930  133.3580 C   0  0  0  0  0  0  0  0  0  0  0  0
  140.3620  156.0350  133.3260 C   0  0  0  0  0  0  0  0  0  0  0  0
  139.1850  156.7740  133.0050 N   0  0  0  0  0  0  0  0  0  0  0  0
  140.2660  154.8230  133.6570 O   0  0  0  0  0  0  0  0  0  0  0  0
  141.9010  158.0380  133.3560 N   0  0  0  0  0  0  0  0  0  0  0  0
  140.9210  159.0850  133.1930 C   0  0  0  0  0  0  0  0  0  0  0  0
  140.3920  159.3890  131.9050 N   0  0  0  0  0  0  0  0  0  0  0  0
  140.4890  159.7180  134.1920 O   0  0  0  0  0  0  0  0  0  0  0  0
  143.2490  158.1760  133.3820 C   0  0  0  0  0  0  0  0  0  0  0  0
  144.0080  159.3520  133.4580 C   0  0  0  0  0  0  0  0  0  0  0  0
  149.2020  158.4767  132.9195 H   0  0  0  0  0  0  0  0  0  0  0  0
  148.7068  157.3381  131.6213 H   0  0  0  0  0  0  0  0  0  0  0  0
  150.3624  158.0352  131.6213 H   0  0  0  0  0  0  0  0  0  0  0  0
  148.1367  159.0029  130.2384 H   0  0  0  0  0  0  0  0  0  0  0  0
  150.6552  160.5364  131.0148 H   0  0  0  0  0  0  0  0  0  0  0  0
  150.4899  159.3834  129.6474 H   0  0  0  0  0  0  0  0  0  0  0  0
  149.5543  160.9168  129.6474 H   0  0  0  0  0  0  0  0  0  0  0  0
  146.2631  160.8152  134.6640 H   0  0  0  0  0  0  0  0  0  0  0  0
  145.8547  161.2688  132.9718 H   0  0  0  0  0  0  0  0  0  0  0  0
  147.1224  157.8817  133.5119 H   0  0  0  0  0  0  0  0  0  0  0  0
  145.7087  155.8045  133.4114 H   0  0  0  0  0  0  0  0  0  0  0  0
  143.0066  154.8951  133.3333 H   0  0  0  0  0  0  0  0  0  0  0  0
  138.2560  156.2960  132.9680 H   0  0  0  0  0  0  0  0  0  0  0  0
  139.2270  157.8060  132.8550 H   0  0  0  0  0  0  0  0  0  0  0  0
  140.9980  159.3630  131.0550 H   0  0  0  0  0  0  0  0  0  0  0  0
  143.5183  160.3364  133.4927 H   0  0  0  0  0  0  0  0  0  0  0  0
  1  2  1  0
  2  3  1  0
  2  4  1  0
  4  5  1  0
  5  6  2  0
  5  7  1  0
  7  8  1  0
  8  9  2  0
  9 10  1  0
 10 11  2  0
 11 12  1  0
 12 13  2  0
 13 14  1  0
 14 15  1  0
 14 16  2  0
 13 17  1  0
 17 18  1  0
 18 19  1  0
 18 20  2  0
 17 21  1  0
 21 22  2  0
 22  8  1  0
 21 11  1  0
  1 23  1  0
  1 24  1  0
  1 25  1  0
  2 26  1  0
  3 27  1  0
  3 28  1  0
  3 29  1  0
  7 30  1  0
  7 31  1  0
  9 32  1  0
 10 33  1  0
 12 34  1  0
 15 35  1  0
 15 36  1  0
 19 37  1  0
 22 38  1  0
M  CHG  2   4  -1  19  -1
M  END
>  <UniqueID>  (20) 
20

>  <SMILES>  (20) 
CC(C)[N-]C(=O)Cc1ccc2cc(C(N)=O)n(C([NH-])=O)c2c1

>  <Energy>  (20) 
73.32359846741625

>  <Genealogy>  (20) 
CC(C)[N-]C(=O)Cc1ccc2cc(C(N)=O)n(C([NH-])=O)c2c1 (protonated)
CC(C)[N-]C(=O)Cc1ccc2cc(C(N)=O)n(C([NH-])=O)c2c1 (3D coordinates assigned)
CC(C)[N-]C(=O)Cc1ccc2cc(C(N)=O)n(C([NH-])=O)c2c1 (optimized conformer: 73.32359846741625 kcal/mol)

>  <smiles>  (20) 
CC(C)NC(=O)Cc1ccc2cc(C(N)=O)n(C(N)=O)c2c1

>  <score_type>  (20) 
oracle

>  <origin>  (20) 
adg

>  <m_score__min__energy>  (20) 
-7.1699999999999999

>  <m_primary>  (20) 
energy

$$$$
20:0
     RDKit          3D

 35 37  0  0  0  0  0  0  0  0999 V2000
  139.7220  158.2710  135.8140 N   0  0  0  0  0  0  0  0  0  0  0  0
  140.2550  158.4150  134.5000 C   0  0  0  0  0  0  0  0  0  0  0  0
  139.5420  158.1080  133.5080 O   0  0  0  0  0  0  0  0  0  0  0  0
  141.6460  158.8690  134.2910 C   0  0  0  0  0  0  0  0  0  0  0  0
  142.1170  160.1150  134.6990 C   0  0  0  0  0  0  0  0  0  0  0  0
  143.4120  160.1860  134.2360 C   0  0  0  0  0  0  0  0  0  0  0  0
  144.3550  161.1990  134.3640 C   0  0  0  0  0  0  0  0  0  0  0  0
  145.6270  160.9900  133.8040 C   0  0  0  0  0  0  0  0  0  0  0  0
  145.9370  159.7770  133.1360 C   0  0  0  0  0  0  0  0  0  0  0  0
  147.2880  159.5630  132.5570 C   0  0  0  0  0  0  0  0  0  0  0  0
  148.0860  158.4890  132.9880 C   0  0  0  0  0  0  0  0  0  0  0  0
  149.3550  158.2880  132.4410 C   0  0  0  0  0  0  0  0  0  0  0  0
  149.8430  159.1530  131.4600 C   0  0  0  0  0  0  0  0  0  0  0  0
  149.0660  160.2330  131.0130 C   0  0  0  0  0  0  0  0  0  0  0  0
  149.5880  161.1490  129.9760 C   0  0  0  0  0  0  0  0  0  0  0  0
  149.6790  162.3860  130.1990 O   0  0  0  0  0  0  0  0  0  0  0  0
  149.9870  160.6580  128.7380 O   0  0  0  0  0  0  0  0  0  0  0  0
  147.7870  160.4300  131.5680 C   0  0  0  0  0  0  0  0  0  0  0  0
  144.9470  158.7700  133.0300 C   0  0  0  0  0  0  0  0  0  0  0  0
  143.6860  159.0130  133.5830 C   0  0  0  0  0  0  0  0  0  0  0  0
  142.6150  158.1910  133.6130 N   0  0  0  0  0  0  0  0  0  0  0  0
  142.5620  156.8510  133.0990 C   0  0  0  0  0  0  0  0  0  0  0  0
  141.3150  156.1600  133.0110 N   0  0  0  0  0  0  0  0  0  0  0  0
  143.6230  156.2660  132.7560 O   0  0  0  0  0  0  0  0  0  0  0  0
  139.4130  159.1030  136.3620 H   0  0  0  0  0  0  0  0  0  0  0  0
  141.5704  160.8800  135.2700 H   0  0  0  0  0  0  0  0  0  0  0  0
  144.1131  162.1357  134.8876 H   0  0  0  0  0  0  0  0  0  0  0  0
  146.3918  161.7765  133.8845 H   0  0  0  0  0  0  0  0  0  0  0  0
  147.7086  157.8030  133.7606 H   0  0  0  0  0  0  0  0  0  0  0  0
  149.9724  157.4449  132.7844 H   0  0  0  0  0  0  0  0  0  0  0  0
  150.8436  158.9870  131.0343 H   0  0  0  0  0  0  0  0  0  0  0  0
  147.1699  161.2730  131.2236 H   0  0  0  0  0  0  0  0  0  0  0  0
  145.1652  157.8180  132.5240 H   0  0  0  0  0  0  0  0  0  0  0  0
  141.2770  155.1910  132.6250 H   0  0  0  0  0  0  0  0  0  0  0  0
  140.4380  156.6030  133.3610 H   0  0  0  0  0  0  0  0  0  0  0  0
  1  2  1  0
  2  3  2  0
  2  4  1  0
  4  5  2  0
  5  6  1  0
  6  7  2  0
  7  8  1  0
  8  9  2  0
  9 10  1  0
 10 11  2  0
 11 12  1  0
 12 13  2  0
 13 14  1  0
 14 15  1  0
 15 16  2  0
 15 17  1  0
 14 18  2  0
  9 19  1  0
 19 20  2  0
 20 21  1  0
 21 22  1  0
 22 23  1  0
 22 24  2  0
 21  4  1  0
 20  6  1  0
 18 10  1  0
  1 25  1  0
  5 26  1  0
  7 27  1  0
  8 28  1  0
 11 29  1  0
 12 30  1  0
 13 31  1  0
 18 32  1  0
 19 33  1  0
 23 34  1  0
 23 35  1  0
M  CHG  2   1  -1  17  -1
M  END
>  <UniqueID>  (21) 
21

>  <SMILES>  (21) 
[NH-]C(=O)c1cc2ccc(-c3cccc(C(=O)[O-])c3)cc2n1C(N)=O

>  <Energy>  (21) 
82.40784447509454

>  <Genealogy>  (21) 
[NH-]C(=O)c1cc2ccc(-c3cccc(C(=O)[O-])c3)cc2n1C(N)=O (protonated)
[NH-]C(=O)c1cc2ccc(-c3cccc(C(=O)[O-])c3)cc2n1C(N)=O (3D coordinates assigned)
[NH-]C(=O)c1cc2ccc(-c3cccc(C(=O)[O-])c3)cc2n1C(N)=O (optimized conformer: 82.40784447509454 kcal/mol)

>  <smiles>  (21) 
NC(=O)c1cc2ccc(-c3cccc(C(=O)O)c3)cc2n1C(N)=O

>  <score_type>  (21) 
oracle

>  <origin>  (21) 
adg

>  <m_score__min__energy>  (21) 
-8.4000000000000004

>  <m_primary>  (21) 
energy

$$$$
21:0
     RDKit          3D

 39 40  0  0  0  0  0  0  0  0999 V2000
  149.7070  159.7660  129.9350 C   0  0  0  0  0  0  0  0  0  0  0  0
  149.5650  159.7590  131.4010 N   0  0  0  0  0  0  0  0  0  0  0  0
  149.4040  158.3750  131.8760 C   0  0  0  0  0  0  0  0  0  0  0  0
  148.4220  160.5960  131.8270 C   0  0  0  0  0  0  0  0  0  0  0  0
  147.8630  160.1170  133.1730 C   0  0  0  0  0  0  0  0  0  0  0  0
  146.4020  160.2210  133.1980 N   0  0  0  0  0  0  0  0  0  0  0  0
  145.5070  159.1000  133.3200 C   0  0  0  0  0  0  0  0  0  0  0  0
  146.0520  157.8090  133.5180 C   0  0  0  0  0  0  0  0  0  0  0  0
  145.2190  156.6850  133.6280 C   0  0  0  0  0  0  0  0  0  0  0  0
  143.8460  156.8800  133.5340 C   0  0  0  0  0  0  0  0  0  0  0  0
  142.8250  155.9620  133.5780 C   0  0  0  0  0  0  0  0  0  0  0  0
  141.6620  156.7010  133.3910 C   0  0  0  0  0  0  0  0  0  0  0  0
  140.3220  156.0930  133.3780 C   0  0  0  0  0  0  0  0  0  0  0  0
  139.1810  156.8520  132.9770 N   0  0  0  0  0  0  0  0  0  0  0  0
  140.1910  154.8710  133.6530 O   0  0  0  0  0  0  0  0  0  0  0  0
  141.9400  158.0310  133.2640 N   0  0  0  0  0  0  0  0  0  0  0  0
  140.9920  159.1170  133.2130 C   0  0  0  0  0  0  0  0  0  0  0  0
  140.4370  159.5380  131.9690 N   0  0  0  0  0  0  0  0  0  0  0  0
  140.6690  159.7350  134.2620 O   0  0  0  0  0  0  0  0  0  0  0  0
  143.2910  158.1210  133.3450 C   0  0  0  0  0  0  0  0  0  0  0  0
  144.1040  159.2570  133.2150 C   0  0  0  0  0  0  0  0  0  0  0  0
  150.7733  159.8186  129.6702 H   0  0  0  0  0  0  0  0  0  0  0  0
  149.2711  158.8453  129.5200 H   0  0  0  0  0  0  0  0  0  0  0  0
  149.1826  160.6394  129.5200 H   0  0  0  0  0  0  0  0  0  0  0  0
  149.4026  158.3627  132.9759 H   0  0  0  0  0  0  0  0  0  0  0  0
  148.4524  157.9678  131.5035 H   0  0  0  0  0  0  0  0  0  0  0  0
  150.2367  157.7603  131.5035 H   0  0  0  0  0  0  0  0  0  0  0  0
  148.7571  161.6389  131.9270 H   0  0  0  0  0  0  0  0  0  0  0  0
  147.6282  160.5179  131.0695 H   0  0  0  0  0  0  0  0  0  0  0  0
  148.1523  159.0675  133.3303 H   0  0  0  0  0  0  0  0  0  0  0  0
  148.2747  160.7523  133.9711 H   0  0  0  0  0  0  0  0  0  0  0  0
  145.9910  161.1610  132.9960 H   0  0  0  0  0  0  0  0  0  0  0  0
  147.1428  157.6850  133.5866 H   0  0  0  0  0  0  0  0  0  0  0  0
  145.6396  155.6806  133.7838 H   0  0  0  0  0  0  0  0  0  0  0  0
  142.9093  154.8757  133.7288 H   0  0  0  0  0  0  0  0  0  0  0  0
  139.2880  157.8290  132.6240 H   0  0  0  0  0  0  0  0  0  0  0  0
  138.2320  156.4170  132.9800 H   0  0  0  0  0  0  0  0  0  0  0  0
  140.9980  159.5050  131.0900 H   0  0  0  0  0  0  0  0  0  0  0  0
  143.6611  160.2477  133.0354 H   0  0  0  0  0  0  0  0  0  0  0  0
  1  2  1  0
  2  3  1  0
  2  4  1  0
  4  5  1  0
  5  6  1  0
  6  7  1  0
  7  8  2  0
  8  9  1  0
  9 10  2  0
 10 11  1  0
 11 12  2  0
 12 13  1  0
 13 14  1  0
 13 15  2  0
 12 16  1  0
 16 17  1  0
 17 18  1  0
 17 19  2  0
 16 20  1  0
 20 21  2  0
 21  7  1  0
 20 10  1  0
  1 22  1  0
  1 23  1  0
  1 24  1  0
  3 25  1  0
  3 26  1  0
  3 27  1  0
  4 28  1  0
  4 29  1  0
  5 30  1  0
  5 31  1  0
  6 32  1  0
  8 33  1  0
  9 34  1  0
 11 35  1  0
 14 36  1  0
 14 37  1  0
 18 38  1  0
 21 39  1  0
M  CHG  1  18  -1
M  END
>  <UniqueID>  (22) 
22

>  <SMILES>  (22) 
CN(C)CCNc1ccc2cc(C(N)=O)n(C([NH-])=O)c2c1

>  <Energy>  (22) 
79.85529154545736

>  <Genealogy>  (22) 
CN(C)CCNc1ccc2cc(C(N)=O)n(C([NH-])=O)c2c1 (protonated)
CN(C)CCNc1ccc2cc(C(N)=O)n(C([NH-])=O)c2c1 (3D coordinates assigned)
CN(C)CCNc1ccc2cc(C(N)=O)n(C([NH-])=O)c2c1 (optimized conformer: 79.85529154545736 kcal/mol)

>  <smiles>  (22) 
CN(C)CCNc1ccc2cc(C(N)=O)n(C(N)=O)c2c1

>  <score_type>  (22) 
oracle

>  <origin>  (22) 
adg

>  <m_score__min__energy>  (22) 
-6.8200000000000003

>  <m_primary>  (22) 
energy

$$$$
22:0
     RDKit          3D

 42 43  0  0  0  0  0  0  0  0999 V2000
  141.4290  157.7830  136.6390 C   0  0  0  0  0  0  0  0  0  0  0  0
  141.7130  157.6920  135.1290 C   0  0  2  0  0  0  0  0  0  0  0  0
  142.8480  158.5550  134.8030 N   0  0  0  0  0  0  0  0  0  0  0  0
  143.6560  158.4170  133.6290 C   0  0  0  0  0  0  0  0  0  0  0  0
  143.2050  157.8060  132.6210 O   0  0  0  0  0  0  0  0  0  0  0  0
  144.9720  158.9930  133.5940 N   0  0  0  0  0  0  0  0  0  0  0  0
  145.2950  160.3170  133.5840 C   0  0  0  0  0  0  0  0  0  0  0  0
  144.3560  161.4380  133.7860 C   0  0  0  0  0  0  0  0  0  0  0  0
  142.9440  161.2470  133.6780 N   0  0  0  0  0  0  0  0  0  0  0  0
  144.8020  162.5700  134.1110 O   0  0  0  0  0  0  0  0  0  0  0  0
  146.6640  160.4890  133.4050 C   0  0  0  0  0  0  0  0  0  0  0  0
  147.1810  159.2170  133.3180 C   0  0  0  0  0  0  0  0  0  0  0  0
  148.4910  158.7990  133.1100 C   0  0  0  0  0  0  0  0  0  0  0  0
  148.7360  157.4190  133.0130 C   0  0  0  0  0  0  0  0  0  0  0  0
  147.6740  156.4840  133.1340 C   0  0  0  0  0  0  0  0  0  0  0  0
  147.9400  155.0100  132.9640 C   0  0  0  0  0  0  0  0  0  0  0  0
  146.8840  154.4330  132.2830 F   0  0  0  0  0  0  0  0  0  0  0  0
  149.1070  154.8020  132.2470 F   0  0  0  0  0  0  0  0  0  0  0  0
  148.0730  154.3920  134.1960 F   0  0  0  0  0  0  0  0  0  0  0  0
  146.3530  156.9520  133.3190 C   0  0  0  0  0  0  0  0  0  0  0  0
  146.1410  158.3310  133.4330 C   0  0  0  0  0  0  0  0  0  0  0  0
  140.4930  158.0790  134.2320 C   0  0  0  0  0  0  0  0  0  0  0  0
  140.2650  156.9690  133.1860 C   0  0  0  0  0  0  0  0  0  0  0  0
  139.1930  158.2230  135.0580 C   0  0  0  0  0  0  0  0  0  0  0  0
  140.7570  159.2710  133.5270 O   0  0  0  0  0  0  0  0  0  0  0  0
  142.3303  157.4942  137.1997 H   0  0  0  0  0  0  0  0  0  0  0  0
  141.1510  158.8152  136.8983 H   0  0  0  0  0  0  0  0  0  0  0  0
  140.6028  157.1046  136.8983 H   0  0  0  0  0  0  0  0  0  0  0  0
  141.9355  156.6368  134.9122 H   0  0  0  0  0  0  0  0  0  0  0  0
  142.5350  160.2910  133.5740 H   0  0  0  0  0  0  0  0  0  0  0  0
  142.2950  162.0600  133.7750 H   0  0  0  0  0  0  0  0  0  0  0  0
  147.2153  161.4391  133.3457 H   0  0  0  0  0  0  0  0  0  0  0  0
  149.3110  159.5272  133.0240 H   0  0  0  0  0  0  0  0  0  0  0  0
  149.7612  157.0590  132.8415 H   0  0  0  0  0  0  0  0  0  0  0  0
  145.5097  156.2477  133.3722 H   0  0  0  0  0  0  0  0  0  0  0  0
  140.0693  156.0160  133.6994 H   0  0  0  0  0  0  0  0  0  0  0  0
  139.4018  157.2303  132.5563 H   0  0  0  0  0  0  0  0  0  0  0  0
  141.1613  156.8689  132.5563 H   0  0  0  0  0  0  0  0  0  0  0  0
  139.4353  158.1962  136.1307 H   0  0  0  0  0  0  0  0  0  0  0  0
  138.7085  159.1803  134.8153 H   0  0  0  0  0  0  0  0  0  0  0  0
  138.5108  157.3949  134.8153 H   0  0  0  0  0  0  0  0  0  0  0  0
  141.6520  159.1960  133.1050 H   0  0  0  0  0  0  0  0  0  0  0  0
  1  2  1  0
  2  3  1  0
  3  4  1  0
  4  5  2  0
  4  6  1  0
  6  7  1  0
  7  8  1  0
  8  9  1  0
  8 10  2  0
  7 11  2  0
 11 12  1  0
 12 13  2  0
 13 14  1  0
 14 15  2  0
 15 16  1  0
 16 17  1  0
 16 18  1  0
 16 19  1  0
 15 20  1  0
 20 21  2  0
  2 22  1  0
 22 23  1  0
 22 24  1  0
 22 25  1  0
 21  6  1  0
 21 12  1  0
  1 26  1  0
  1 27  1  0
  1 28  1  0
  2 29  1  1
  9 30  1  0
  9 31  1  0
 11 32  1  0
 13 33  1  0
 14 34  1  0
 20 35  1  0
 23 36  1  0
 23 37  1  0
 23 38  1  0
 24 39  1  0
 24 40  1  0
 24 41  1  0
 25 42  1  0
M  CHG  1   3  -1
M  END
>  <UniqueID>  (23) 
23

>  <SMILES>  (23) 
C[C@H]([N-]C(=O)n1c(C(N)=O)cc2ccc(C(F)(F)F)cc21)C(C)(C)O

>  <Energy>  (23) 
77.49871137964203

>  <Genealogy>  (23) 
CC([N-]C(=O)n1c(C(N)=O)cc2ccc(C(F)(F)F)cc21)C(C)(C)O (protonated)
C[C@H]([N-]C(=O)n1c(C(N)=O)cc2ccc(C(F)(F)F)cc21)C(C)(C)O (chirality)
C[C@H]([N-]C(=O)n1c(C(N)=O)cc2ccc(C(F)(F)F)cc21)C(C)(C)O (3D coordinates assigned)
C[C@H]([N-]C(=O)n1c(C(N)=O)cc2ccc(C(F)(F)F)cc21)C(C)(C)O (optimized conformer: 77.49871137964203 kcal/mol)

>  <smiles>  (23) 
CC(NC(=O)n1c(C(N)=O)cc2ccc(C(F)(F)F)cc21)C(C)(C)O

>  <score_type>  (23) 
oracle

>  <origin>  (23) 
adg

>  <m_score__min__energy>  (23) 
-6.8300000000000001

>  <m_primary>  (23) 
energy

$$$$
23:0
     RDKit          3D

 41 43  0  0  0  0  0  0  0  0999 V2000
  141.0860  157.9060  136.5380 C   0  0  0  0  0  0  0  0  0  0  0  0
  140.7340  158.9360  135.4710 C   0  0  0  0  0  0  0  0  0  0  0  0
  141.7560  159.9270  135.3720 O   0  0  0  0  0  0  0  0  0  0  0  0
  142.3950  160.2590  134.1710 C   0  0  0  0  0  0  0  0  0  0  0  0
  141.7720  160.8790  133.2670 O   0  0  0  0  0  0  0  0  0  0  0  0
  143.7750  159.9080  133.9780 N   0  0  0  0  0  0  0  0  0  0  0  0
  144.8430  160.7500  133.8820 C   0  0  0  0  0  0  0  0  0  0  0  0
  144.8210  162.2090  134.1140 C   0  0  0  0  0  0  0  0  0  0  0  0
  143.9010  163.0280  133.3970 N   0  0  0  0  0  0  0  0  0  0  0  0
  145.6340  162.7470  134.9120 O   0  0  0  0  0  0  0  0  0  0  0  0
  146.0070  160.0330  133.6120 C   0  0  0  0  0  0  0  0  0  0  0  0
  145.6170  158.7140  133.5480 C   0  0  0  0  0  0  0  0  0  0  0  0
  146.3680  157.5700  133.2990 C   0  0  0  0  0  0  0  0  0  0  0  0
  145.6970  156.3360  133.2660 C   0  0  0  0  0  0  0  0  0  0  0  0
  144.2960  156.2710  133.4670 C   0  0  0  0  0  0  0  0  0  0  0  0
  143.5940  154.9690  133.4290 C   0  0  0  0  0  0  0  0  0  0  0  0
  142.8580  154.5640  134.5510 C   0  0  0  0  0  0  0  0  0  0  0  0
  142.2060  153.3330  134.5570 C   0  0  0  0  0  0  0  0  0  0  0  0
  142.2930  152.5080  133.4370 C   0  0  0  0  0  0  0  0  0  0  0  0
  141.6690  151.3030  133.4380 F   0  0  0  0  0  0  0  0  0  0  0  0
  142.9960  152.9080  132.3440 N   0  0  0  0  0  0  0  0  0  0  0  0
  143.6320  154.1180  132.2970 C   0  0  0  0  0  0  0  0  0  0  0  0
  144.3680  154.5070  131.0410 C   0  0  0  0  0  0  0  0  0  0  0  0
  143.5680  157.4530  133.7280 C   0  0  0  0  0  0  0  0  0  0  0  0
  144.2650  158.6660  133.7730 C   0  0  0  0  0  0  0  0  0  0  0  0
  140.9359  158.3452  137.5353 H   0  0  0  0  0  0  0  0  0  0  0  0
  140.4382  157.0243  136.4244 H   0  0  0  0  0  0  0  0  0  0  0  0
  142.1379  157.6052  136.4244 H   0  0  0  0  0  0  0  0  0  0  0  0
  140.6270  158.4290  134.5007 H   0  0  0  0  0  0  0  0  0  0  0  0
  139.7901  159.4271  135.7503 H   0  0  0  0  0  0  0  0  0  0  0  0
  142.9720  162.6570  133.0980 H   0  0  0  0  0  0  0  0  0  0  0  0
  147.0220  160.4354  133.4784 H   0  0  0  0  0  0  0  0  0  0  0  0
  147.4538  157.6296  133.1330 H   0  0  0  0  0  0  0  0  0  0  0  0
  146.2646  155.4118  133.0824 H   0  0  0  0  0  0  0  0  0  0  0  0
  142.7950  155.2212  135.4308 H   0  0  0  0  0  0  0  0  0  0  0  0
  141.6280  153.0151  135.4373 H   0  0  0  0  0  0  0  0  0  0  0  0
  143.0380  152.2670  131.5200 H   0  0  0  0  0  0  0  0  0  0  0  0
  145.3114  155.0056  131.3083 H   0  0  0  0  0  0  0  0  0  0  0  0
  144.5847  153.6056  130.4489 H   0  0  0  0  0  0  0  0  0  0  0  0
  143.7453  155.1937  130.4489 H   0  0  0  0  0  0  0  0  0  0  0  0
  142.4807  157.4210  133.8918 H   0  0  0  0  0  0  0  0  0  0  0  0
  1  2  1  0
  2  3  1  0
  3  4  1  0
  4  5  2  0
  4  6  1  0
  6  7  1  0
  7  8  1  0
  8  9  1  0
  8 10  2  0
  7 11  2  0
 11 12  1  0
 12 13  2  0
 13 14  1  0
 14 15  2  0
 15 16  1  0
 16 17  2  0
 17 18  1  0
 18 19  2  0
 19 20  1  0
 19 21  1  0
 21 22  2  0
 22 23  1  0
 15 24  1  0
 24 25  2  0
 25  6  1  0
 25 12  1  0
 22 16  1  0
  1 26  1  0
  1 27  1  0
  1 28  1  0
  2 29  1  0
  2 30  1  0
  9 31  1  0
 11 32  1  0
 13 33  1  0
 14 34  1  0
 17 35  1  0
 18 36  1  0
 21 37  1  0
 23 38  1  0
 23 39  1  0
 23 40  1  0
 24 41  1  0
M  CHG  2   9  -1  21   1
M  END
>  <UniqueID>  (24) 
24

>  <SMILES>  (24) 
CCOC(=O)n1c(C([NH-])=O)cc2ccc(-c3ccc(F)[nH+]c3C)cc21

>  <Energy>  (24) 
85.34214859183419

>  <Genealogy>  (24) 
CCOC(=O)n1c(C([NH-])=O)cc2ccc(-c3ccc(F)[nH+]c3C)cc21 (protonated)
CCOC(=O)n1c(C([NH-])=O)cc2ccc(-c3ccc(F)[nH+]c3C)cc21 (3D coordinates assigned)
CCOC(=O)n1c(C([NH-])=O)cc2ccc(-c3ccc(F)[nH+]c3C)cc21 (optimized conformer: 85.34214859183419 kcal/mol)

>  <smiles>  (24) 
CCOC(=O)n1c(C(N)=O)cc2ccc(-c3ccc(F)nc3C)cc21

>  <score_type>  (24) 
oracle

>  <origin>  (24) 
adg

>  <m_score__min__energy>  (24) 
-7.3600000000000003

>  <m_primary>  (24) 
energy

$$$$
24:0
     RDKit          3D

 38 39  0  0  0  0  0  0  0  0999 V2000
  140.9930  159.3520  136.5130 C   0  0  0  0  0  0  0  0  0  0  0  0
  141.4470  159.0730  135.0850 C   0  0  0  0  0  0  0  0  0  0  0  0
  142.8530  158.8320  135.0420 O   0  0  0  0  0  0  0  0  0  0  0  0
  143.5560  158.5800  133.8580 C   0  0  0  0  0  0  0  0  0  0  0  0
  142.9990  157.9760  132.9000 O   0  0  0  0  0  0  0  0  0  0  0  0
  144.9270  158.9880  133.7450 N   0  0  0  0  0  0  0  0  0  0  0  0
  145.4190  160.2580  133.6670 C   0  0  0  0  0  0  0  0  0  0  0  0
  144.6420  161.5030  133.8400 C   0  0  0  0  0  0  0  0  0  0  0  0
  143.2200  161.5020  133.7320 N   0  0  0  0  0  0  0  0  0  0  0  0
  145.2360  162.5740  134.1330 O   0  0  0  0  0  0  0  0  0  0  0  0
  146.7990  160.2360  133.4820 C   0  0  0  0  0  0  0  0  0  0  0  0
  147.1410  158.9030  133.4580 C   0  0  0  0  0  0  0  0  0  0  0  0
  148.3850  158.3040  133.3030 C   0  0  0  0  0  0  0  0  0  0  0  0
  148.4440  156.9010  133.2970 C   0  0  0  0  0  0  0  0  0  0  0  0
  147.2660  156.1080  133.4220 C   0  0  0  0  0  0  0  0  0  0  0  0
  147.3900  154.5760  133.4390 C   0  0  0  0  0  0  0  0  0  0  0  0
  146.1900  153.9650  132.6930 C   0  0  0  0  0  0  0  0  0  0  0  0
  148.6940  154.0550  132.7960 C   0  0  0  0  0  0  0  0  0  0  0  0
  147.3750  154.0990  134.8380 C   0  0  0  0  0  0  0  0  0  0  0  0
  147.3630  153.7250  135.9330 N   0  0  0  0  0  0  0  0  0  0  0  0
  146.0200  156.7710  133.5970 C   0  0  0  0  0  0  0  0  0  0  0  0
  145.9960  158.1710  133.6190 C   0  0  0  0  0  0  0  0  0  0  0  0
  141.7116  158.9104  137.2191 H   0  0  0  0  0  0  0  0  0  0  0  0
  140.9401  160.4387  136.6752 H   0  0  0  0  0  0  0  0  0  0  0  0
  139.9996  158.9083  136.6752 H   0  0  0  0  0  0  0  0  0  0  0  0
  140.9168  158.1878  134.7037 H   0  0  0  0  0  0  0  0  0  0  0  0
  141.2189  159.9510  134.4629 H   0  0  0  0  0  0  0  0  0  0  0  0
  142.6750  160.6140  133.8140 H   0  0  0  0  0  0  0  0  0  0  0  0
  147.4721  161.0997  133.3774 H   0  0  0  0  0  0  0  0  0  0  0  0
  149.2957  158.9102  133.1885 H   0  0  0  0  0  0  0  0  0  0  0  0
  149.4196  156.4035  133.1937 H   0  0  0  0  0  0  0  0  0  0  0  0
  145.4563  153.5914  133.4225 H   0  0  0  0  0  0  0  0  0  0  0  0
  145.7206  154.7338  132.0617 H   0  0  0  0  0  0  0  0  0  0  0  0
  146.5356  153.1331  132.0617 H   0  0  0  0  0  0  0  0  0  0  0  0
  149.4045  153.7711  133.5863 H   0  0  0  0  0  0  0  0  0  0  0  0
  148.4699  153.1774  132.1719 H   0  0  0  0  0  0  0  0  0  0  0  0
  149.1363  154.8454  132.1719 H   0  0  0  0  0  0  0  0  0  0  0  0
  145.0908  156.1938  133.7131 H   0  0  0  0  0  0  0  0  0  0  0  0
  1  2  1  0
  2  3  1  0
  3  4  1  0
  4  5  2  0
  4  6  1  0
  6  7  1  0
  7  8  1  0
  8  9  1  0
  8 10  2  0
  7 11  2  0
 11 12  1  0
 12 13  2  0
 13 14  1  0
 14 15  2  0
 15 16  1  0
 16 17  1  0
 16 18  1  0
 16 19  1  0
 19 20  3  0
 15 21  1  0
 21 22  2  0
 22  6  1  0
 22 12  1  0
  1 23  1  0
  1 24  1  0
  1 25  1  0
  2 26  1  0
  2 27  1  0
  9 28  1  0
 11 29  1  0
 13 30  1  0
 14 31  1  0
 17 32  1  0
 17 33  1  0
 17 34  1  0
 18 35  1  0
 18 36  1  0
 18 37  1  0
 21 38  1  0
M  CHG  1   9  -1
M  END
>  <UniqueID>  (25) 
25

>  <SMILES>  (25) 
CCOC(=O)n1c(C([NH-])=O)cc2ccc(C(C)(C)C#N)cc21

>  <Energy>  (25) 
74.15870725034691

>  <Genealogy>  (25) 
CCOC(=O)n1c(C([NH-])=O)cc2ccc(C(C)(C)C#N)cc21 (protonated)
CCOC(=O)n1c(C([NH-])=O)cc2ccc(C(C)(C)C#N)cc21 (3D coordinates assigned)
CCOC(=O)n1c(C([NH-])=O)cc2ccc(C(C)(C)C#N)cc21 (optimized conformer: 74.15870725034691 kcal/mol)

>  <smiles>  (25) 
CCOC(=O)n1c(C(N)=O)cc2ccc(C(C)(C)C#N)cc21

>  <score_type>  (25) 
oracle

>  <origin>  (25) 
adg

>  <m_score__min__energy>  (25) 
-6.5800000000000001

>  <m_primary>  (25) 
energy

$$$$
25:0
     RDKit          3D

 36 38  0  0  0  0  0  0  0  0999 V2000
  147.4410  150.3750  132.2430 C   0  0  0  0  0  0  0  0  0  0  0  0
  147.4180  151.8690  132.4330 C   0  0  0  0  0  0  0  0  0  0  0  0
  146.1930  152.5380  132.5580 C   0  0  0  0  0  0  0  0  0  0  0  0
  146.1590  153.9210  132.7290 C   0  0  0  0  0  0  0  0  0  0  0  0
  147.3620  154.6450  132.7790 C   0  0  0  0  0  0  0  0  0  0  0  0
  147.3810  156.1190  132.9570 C   0  0  0  0  0  0  0  0  0  0  0  0
  148.6180  156.8150  132.9080 C   0  0  0  0  0  0  0  0  0  0  0  0
  148.6700  158.2070  133.0910 C   0  0  0  0  0  0  0  0  0  0  0  0
  147.4750  158.8800  133.3200 C   0  0  0  0  0  0  0  0  0  0  0  0
  147.2450  160.2150  133.5610 C   0  0  0  0  0  0  0  0  0  0  0  0
  145.8680  160.3260  133.7400 C   0  0  0  0  0  0  0  0  0  0  0  0
  145.1790  161.6170  133.9420 C   0  0  0  0  0  0  0  0  0  0  0  0
  145.8720  162.7430  134.4750 N   0  0  0  0  0  0  0  0  0  0  0  0
  143.9490  161.7140  133.6880 O   0  0  0  0  0  0  0  0  0  0  0  0
  145.2710  159.1060  133.6240 N   0  0  0  0  0  0  0  0  0  0  0  0
  143.8860  158.7790  133.8220 C   0  0  0  0  0  0  0  0  0  0  0  0
  143.2410  158.1710  132.9280 O   0  0  0  0  0  0  0  0  0  0  0  0
  143.2390  159.1540  134.9930 O   0  0  0  0  0  0  0  0  0  0  0  0
  146.2690  158.2320  133.3630 C   0  0  0  0  0  0  0  0  0  0  0  0
  146.1880  156.8440  133.2040 C   0  0  0  0  0  0  0  0  0  0  0  0
  148.5400  153.9740  132.6420 N   0  0  0  0  0  0  0  0  0  0  0  0
  148.6080  152.6260  132.4710 C   0  0  0  0  0  0  0  0  0  0  0  0
  149.9580  151.9860  132.3340 C   0  0  0  0  0  0  0  0  0  0  0  0
  147.4486  149.8805  133.2256 H   0  0  0  0  0  0  0  0  0  0  0  0
  146.5475  150.0629  131.6823 H   0  0  0  0  0  0  0  0  0  0  0  0
  148.3436  150.0905  131.6823 H   0  0  0  0  0  0  0  0  0  0  0  0
  145.2527  151.9684  132.5210 H   0  0  0  0  0  0  0  0  0  0  0  0
  145.1953  154.4428  132.8243 H   0  0  0  0  0  0  0  0  0  0  0  0
  149.5478  156.2567  132.7243 H   0  0  0  0  0  0  0  0  0  0  0  0
  149.6270  158.7480  133.0542 H   0  0  0  0  0  0  0  0  0  0  0  0
  147.9902  161.0230  133.6033 H   0  0  0  0  0  0  0  0  0  0  0  0
  146.9160  162.7620  134.5110 H   0  0  0  0  0  0  0  0  0  0  0  0
  145.2195  156.3266  133.2692 H   0  0  0  0  0  0  0  0  0  0  0  0
  150.3735  151.7890  133.3333 H   0  0  0  0  0  0  0  0  0  0  0  0
  149.8604  151.0383  131.7841 H   0  0  0  0  0  0  0  0  0  0  0  0
  150.6299  152.6614  131.7841 H   0  0  0  0  0  0  0  0  0  0  0  0
  1  2  1  0
  2  3  2  0
  3  4  1  0
  4  5  2  0
  5  6  1  0
  6  7  2  0
  7  8  1  0
  8  9  2  0
  9 10  1  0
 10 11  2  0
 11 12  1  0
 12 13  1  0
 12 14  2  0
 11 15  1  0
 15 16  1  0
 16 17  2  0
 16 18  1  0
 15 19  1  0
 19 20  2  0
  5 21  1  0
 21 22  2  0
 22 23  1  0
 22  2  1  0
 20  6  1  0
 19  9  1  0
  1 24  1  0
  1 25  1  0
  1 26  1  0
  3 27  1  0
  4 28  1  0
  7 29  1  0
  8 30  1  0
 10 31  1  0
 13 32  1  0
 20 33  1  0
 23 34  1  0
 23 35  1  0
 23 36  1  0
M  CHG  2  13  -1  18  -1
M  END
>  <UniqueID>  (26) 
26

>  <SMILES>  (26) 
Cc1ccc(-c2ccc3cc(C([NH-])=O)n(C(=O)[O-])c3c2)nc1C

>  <Energy>  (26) 
82.31820301830057

>  <Genealogy>  (26) 
Cc1ccc(-c2ccc3cc(C([NH-])=O)n(C(=O)[O-])c3c2)nc1C (protonated)
Cc1ccc(-c2ccc3cc(C([NH-])=O)n(C(=O)[O-])c3c2)nc1C (3D coordinates assigned)
Cc1ccc(-c2ccc3cc(C([NH-])=O)n(C(=O)[O-])c3c2)nc1C (optimized conformer: 82.31820301830057 kcal/mol)

>  <smiles>  (26) 
Cc1ccc(-c2ccc3cc(C(N)=O)n(C(=O)O)c3c2)nc1C

>  <score_type>  (26) 
oracle

>  <origin>  (26) 
adg

>  <m_score__min__energy>  (26) 
-7.5599999999999996

>  <m_primary>  (26) 
energy

$$$$
26:0
     RDKit          3D

 28 29  0  0  0  0  0  0  0  0999 V2000
  149.3980  158.9910  133.3490 N   0  0  0  0  0  0  0  0  0  0  0  0
  148.3130  159.7040  132.7550 C   0  0  0  0  0  0  0  0  0  0  0  0
  148.5510  160.5360  131.8400 O   0  0  0  0  0  0  0  0  0  0  0  0
  146.9140  159.4460  133.1530 C   0  0  0  0  0  0  0  0  0  0  0  0
  145.9690  160.4510  133.3370 C   0  0  0  0  0  0  0  0  0  0  0  0
  144.8090  159.7990  133.6890 C   0  0  0  0  0  0  0  0  0  0  0  0
  143.5640  160.3140  134.0310 C   0  0  0  0  0  0  0  0  0  0  0  0
  142.5600  159.4120  134.4200 C   0  0  0  0  0  0  0  0  0  0  0  0
  142.8140  158.0170  134.4590 C   0  0  0  0  0  0  0  0  0  0  0  0
  141.7510  157.0650  134.9470 C   0  0  0  0  0  0  0  0  0  0  0  0
  140.6460  157.1550  134.1220 F   0  0  0  0  0  0  0  0  0  0  0  0
  142.2200  155.7630  134.9340 F   0  0  0  0  0  0  0  0  0  0  0  0
  141.3750  157.3770  136.2420 F   0  0  0  0  0  0  0  0  0  0  0  0
  144.1040  157.5350  134.1330 C   0  0  0  0  0  0  0  0  0  0  0  0
  145.0750  158.4530  133.7180 C   0  0  0  0  0  0  0  0  0  0  0  0
  146.3650  158.2200  133.3840 N   0  0  0  0  0  0  0  0  0  0  0  0
  147.0510  156.9570  133.4230 C   0  0  0  0  0  0  0  0  0  0  0  0
  147.7640  156.6640  134.4200 O   0  0  0  0  0  0  0  0  0  0  0  0
  146.9330  155.9790  132.2920 C   0  0  0  0  0  0  0  0  0  0  0  0
  145.6010  154.8360  132.5980 Cl  0  0  0  0  0  0  0  0  0  0  0  0
  150.3820  159.2290  133.0940 H   0  0  0  0  0  0  0  0  0  0  0  0
  149.2290  158.1620  133.9610 H   0  0  0  0  0  0  0  0  0  0  0  0
  146.1174  161.5352  133.2250 H   0  0  0  0  0  0  0  0  0  0  0  0
  143.3707  161.3964  133.9980 H   0  0  0  0  0  0  0  0  0  0  0  0
  141.5656  159.7917  134.6975 H   0  0  0  0  0  0  0  0  0  0  0  0
  144.3381  156.4626  134.2043 H   0  0  0  0  0  0  0  0  0  0  0  0
  146.7343  156.5261  131.3586 H   0  0  0  0  0  0  0  0  0  0  0  0
  147.8743  155.4163  132.2064 H   0  0  0  0  0  0  0  0  0  0  0  0
  1  2  1  0
  2  3  2  0
  2  4  1  0
  4  5  2  0
  5  6  1  0
  6  7  2  0
  7  8  1  0
  8  9  2  0
  9 10  1  0
 10 11  1  0
 10 12  1  0
 10 13  1  0
  9 14  1  0
 14 15  2  0
 15 16  1  0
 16 17  1  0
 17 18  2  0
 17 19  1  0
 19 20  1  0
 16  4  1  0
 15  6  1  0
  1 21  1  0
  1 22  1  0
  5 23  1  0
  7 24  1  0
  8 25  1  0
 14 26  1  0
 19 27  1  0
 19 28  1  0
M  END
>  <UniqueID>  (27) 
27

>  <SMILES>  (27) 
NC(=O)c1cc2ccc(C(F)(F)F)cc2n1C(=O)CCl

>  <Energy>  (27) 
68.1881630031842

>  <Genealogy>  (27) 
NC(=O)c1cc2ccc(C(F)(F)F)cc2n1C(=O)CCl (3D coordinates assigned)
NC(=O)c1cc2ccc(C(F)(F)F)cc2n1C(=O)CCl (optimized conformer: 68.1881630031842 kcal/mol)

>  <smiles>  (27) 
NC(=O)c1cc2ccc(C(F)(F)F)cc2n1C(=O)CCl

>  <score_type>  (27) 
oracle

>  <origin>  (27) 
adg

>  <m_score__min__energy>  (27) 
-6.5499999999999998

>  <m_primary>  (27) 
energy

$$$$
27:0
     RDKit          3D

 36 37  0  0  0  0  0  0  0  0999 V2000
  147.8120  160.7170  132.9220 N   0  0  0  0  0  0  0  0  0  0  0  0
  147.3170  159.6080  133.6670 C   0  0  0  0  0  0  0  0  0  0  0  0
  148.0890  158.9970  134.4510 O   0  0  0  0  0  0  0  0  0  0  0  0
  145.9210  159.1600  133.4780 C   0  0  0  0  0  0  0  0  0  0  0  0
  145.5680  157.8360  133.2250 C   0  0  0  0  0  0  0  0  0  0  0  0
  144.1920  157.8230  133.2060 C   0  0  0  0  0  0  0  0  0  0  0  0
  143.3130  156.7680  132.9890 C   0  0  0  0  0  0  0  0  0  0  0  0
  141.9360  157.0450  132.9990 C   0  0  0  0  0  0  0  0  0  0  0  0
  141.4620  158.3670  133.2170 C   0  0  0  0  0  0  0  0  0  0  0  0
  139.9750  158.6670  133.2210 C   0  0  1  0  0  0  0  0  0  0  0  0
  139.4360  158.8490  131.7810 C   0  0  0  0  0  0  0  0  0  0  0  0
  138.0730  159.5710  131.7310 C   0  0  2  0  0  0  0  0  0  0  0  0
  137.0230  158.6410  131.8250 O   0  0  0  0  0  0  0  0  0  0  0  0
  137.9200  160.3520  130.4240 C   0  0  0  0  0  0  0  0  0  0  0  0
  136.5870  160.4360  130.0580 F   0  0  0  0  0  0  0  0  0  0  0  0
  139.2430  157.5950  133.9850 C   0  0  0  0  0  0  0  0  0  0  0  0
  138.7560  156.5970  133.3900 O   0  0  0  0  0  0  0  0  0  0  0  0
  139.1380  157.6830  135.3670 O   0  0  0  0  0  0  0  0  0  0  0  0
  142.3920  159.4110  133.4360 C   0  0  0  0  0  0  0  0  0  0  0  0
  143.7570  159.1020  133.4380 C   0  0  0  0  0  0  0  0  0  0  0  0
  144.8070  159.9370  133.6040 N   0  0  0  0  0  0  0  0  0  0  0  0
  144.7450  161.3600  133.7960 C   0  0  0  0  0  0  0  0  0  0  0  0
  145.7020  161.9700  134.3400 O   0  0  0  0  0  0  0  0  0  0  0  0
  143.6170  162.0730  133.4080 O   0  0  0  0  0  0  0  0  0  0  0  0
  147.3230  161.6390  132.9430 H   0  0  0  0  0  0  0  0  0  0  0  0
  146.2452  156.9826  133.0728 H   0  0  0  0  0  0  0  0  0  0  0  0
  143.6846  155.7474  132.8148 H   0  0  0  0  0  0  0  0  0  0  0  0
  141.2162  156.2293  132.8362 H   0  0  0  0  0  0  0  0  0  0  0  0
  139.7985  159.6235  133.7348 H   0  0  0  0  0  0  0  0  0  0  0  0
  140.1655  159.4383  131.2061 H   0  0  0  0  0  0  0  0  0  0  0  0
  139.2908  157.8449  131.3560 H   0  0  0  0  0  0  0  0  0  0  0  0
  138.0321  160.2680  132.5810 H   0  0  0  0  0  0  0  0  0  0  0  0
  137.3610  157.8670  132.3480 H   0  0  0  0  0  0  0  0  0  0  0  0
  138.3218  161.3669  130.5605 H   0  0  0  0  0  0  0  0  0  0  0  0
  138.4724  159.8267  129.6310 H   0  0  0  0  0  0  0  0  0  0  0  0
  142.0494  160.4432  133.6011 H   0  0  0  0  0  0  0  0  0  0  0  0
  1  2  1  0
  2  3  2  0
  2  4  1  0
  4  5  2  0
  5  6  1  0
  6  7  2  0
  7  8  1  0
  8  9  2  0
  9 10  1  0
 10 11  1  0
 11 12  1  0
 12 13  1  0
 12 14  1  0
 14 15  1  0
 10 16  1  0
 16 17  2  0
 16 18  1  0
  9 19  1  0
 19 20  2  0
 20 21  1  0
 21 22  1  0
 22 23  2  0
 22 24  1  0
 21  4  1  0
 20  6  1  0
  1 25  1  0
  5 26  1  0
  7 27  1  0
  8 28  1  0
 10 29  1  1
 11 30  1  0
 11 31  1  0
 12 32  1  1
 13 33  1  0
 14 34  1  0
 14 35  1  0
 19 36  1  0
M  CHG  3   1  -1  18  -1  24  -1
M  END
>  <UniqueID>  (28) 
28

>  <SMILES>  (28) 
[NH-]C(=O)c1cc2ccc([C@@H](C[C@H](O)CF)C(=O)[O-])cc2n1C(=O)[O-]

>  <Energy>  (28) 
72.99305430781662

>  <Genealogy>  (28) 
[NH-]C(=O)c1cc2ccc(C(CC(O)CF)C(=O)[O-])cc2n1C(=O)[O-] (protonated)
[NH-]C(=O)c1cc2ccc([C@@H](C[C@H](O)CF)C(=O)[O-])cc2n1C(=O)[O-] (chirality)
[NH-]C(=O)c1cc2ccc([C@@H](C[C@H](O)CF)C(=O)[O-])cc2n1C(=O)[O-] (3D coordinates assigned)
[NH-]C(=O)c1cc2ccc([C@@H](C[C@H](O)CF)C(=O)[O-])cc2n1C(=O)[O-] (optimized conformer: 72.99305430781662 kcal/mol)

>  <smiles>  (28) 
NC(=O)c1cc2ccc(C(CC(O)CF)C(=O)O)cc2n1C(=O)O

>  <score_type>  (28) 
oracle

>  <origin>  (28) 
adg

>  <m_score__min__energy>  (28) 
-6.5800000000000001

>  <m_primary>  (28) 
energy

$$$$
28:0
     RDKit          3D

 32 33  0  0  0  0  0  0  0  0999 V2000
  148.5680  160.2470  131.1180 C   0  0  0  0  0  0  0  0  0  0  0  0
  149.4510  159.0540  131.4470 C   0  0  0  0  0  0  0  0  0  0  0  0
  148.6720  158.0460  132.0820 O   0  0  0  0  0  0  0  0  0  0  0  0
  147.9940  158.2600  133.2860 C   0  0  0  0  0  0  0  0  0  0  0  0
  148.6370  158.5480  134.3320 O   0  0  0  0  0  0  0  0  0  0  0  0
  146.5610  158.1530  133.3250 N   0  0  0  0  0  0  0  0  0  0  0  0
  145.8180  157.0130  133.2620 C   0  0  0  0  0  0  0  0  0  0  0  0
  146.3320  155.6590  132.9710 C   0  0  0  0  0  0  0  0  0  0  0  0
  147.3640  155.4510  132.0060 N   0  0  0  0  0  0  0  0  0  0  0  0
  145.8130  154.6650  133.5460 O   0  0  0  0  0  0  0  0  0  0  0  0
  144.4690  157.2910  133.4570 C   0  0  0  0  0  0  0  0  0  0  0  0
  144.4010  158.6540  133.6300 C   0  0  0  0  0  0  0  0  0  0  0  0
  143.2970  159.4720  133.8570 C   0  0  0  0  0  0  0  0  0  0  0  0
  143.5200  160.8490  134.0210 C   0  0  0  0  0  0  0  0  0  0  0  0
  144.8340  161.3760  133.9790 C   0  0  0  0  0  0  0  0  0  0  0  0
  145.0580  162.8500  134.1340 C   0  0  0  0  0  0  0  0  0  0  0  0
  145.9280  160.5190  133.7310 C   0  0  0  0  0  0  0  0  0  0  0  0
  145.6770  159.1530  133.5490 C   0  0  0  0  0  0  0  0  0  0  0  0
  148.2215  160.7151  132.0512 H   0  0  0  0  0  0  0  0  0  0  0  0
  149.1437  160.9789  130.5324 H   0  0  0  0  0  0  0  0  0  0  0  0
  147.6999  159.9102  130.5324 H   0  0  0  0  0  0  0  0  0  0  0  0
  149.8844  158.6520  130.5193 H   0  0  0  0  0  0  0  0  0  0  0  0
  150.2590  159.3719  132.1224 H   0  0  0  0  0  0  0  0  0  0  0  0
  147.7070  156.2340  131.4080 H   0  0  0  0  0  0  0  0  0  0  0  0
  147.7280  154.4890  131.8260 H   0  0  0  0  0  0  0  0  0  0  0  0
  143.6348  156.5741  133.4701 H   0  0  0  0  0  0  0  0  0  0  0  0
  142.2813  159.0525  133.9063 H   0  0  0  0  0  0  0  0  0  0  0  0
  142.6668  161.5240  134.1835 H   0  0  0  0  0  0  0  0  0  0  0  0
  145.0967  163.1045  135.2034 H   0  0  0  0  0  0  0  0  0  0  0  0
  146.0088  163.1286  133.6562 H   0  0  0  0  0  0  0  0  0  0  0  0
  144.2329  163.3985  133.6562 H   0  0  0  0  0  0  0  0  0  0  0  0
  146.9532  160.9145  133.6819 H   0  0  0  0  0  0  0  0  0  0  0  0
  1  2  1  0
  2  3  1  0
  3  4  1  0
  4  5  2  0
  4  6  1  0
  6  7  1  0
  7  8  1  0
  8  9  1  0
  8 10  2  0
  7 11  2  0
 11 12  1  0
 12 13  2  0
 13 14  1  0
 14 15  2  0
 15 16  1  0
 15 17  1  0
 17 18  2  0
 18  6  1  0
 18 12  1  0
  1 19  1  0
  1 20  1  0
  1 21  1  0
  2 22  1  0
  2 23  1  0
  9 24  1  0
  9 25  1  0
 11 26  1  0
 13 27  1  0
 14 28  1  0
 16 29  1  0
 16 30  1  0
 16 31  1  0
 17 32  1  0
M  END
>  <UniqueID>  (29) 
29

>  <SMILES>  (29) 
CCOC(=O)n1c(C(N)=O)cc2ccc(C)cc21

>  <Energy>  (29) 
65.56773717259279

>  <Genealogy>  (29) 
CCOC(=O)n1c(C(N)=O)cc2ccc(C)cc21 (3D coordinates assigned)
CCOC(=O)n1c(C(N)=O)cc2ccc(C)cc21 (optimized conformer: 65.56773717259279 kcal/mol)

>  <smiles>  (29) 
CCOC(=O)n1c(C(N)=O)cc2ccc(C)cc21

>  <score_type>  (29) 
oracle

>  <origin>  (29) 
adg

>  <m_score__min__energy>  (29) 
-6.0899999999999999

>  <m_primary>  (29) 
energy

$$$$
29:0
     RDKit          3D

 25 26  0  0  0  0  0  0  0  0999 V2000
  144.5600  156.8860  134.4350 N   0  0  0  0  0  0  0  0  0  0  0  0
  145.9770  156.7070  134.4760 C   0  0  0  0  0  0  0  0  0  0  0  0
  146.4730  155.8900  135.2960 O   0  0  0  0  0  0  0  0  0  0  0  0
  146.8730  157.5110  133.6200 C   0  0  0  0  0  0  0  0  0  0  0  0
  148.1270  157.0740  133.2060 C   0  0  0  0  0  0  0  0  0  0  0  0
  148.6610  158.1250  132.4960 C   0  0  0  0  0  0  0  0  0  0  0  0
  149.8850  158.2310  131.8430 C   0  0  0  0  0  0  0  0  0  0  0  0
  150.1620  159.4220  131.1520 C   0  0  0  0  0  0  0  0  0  0  0  0
  149.2140  160.4750  131.1190 C   0  0  0  0  0  0  0  0  0  0  0  0
  149.5070  161.7400  130.3630 C   0  0  0  0  0  0  0  0  0  0  0  0
  148.4880  162.6530  130.5680 F   0  0  0  0  0  0  0  0  0  0  0  0
  149.6070  161.4620  129.0130 F   0  0  0  0  0  0  0  0  0  0  0  0
  147.9800  160.3300  131.7900 C   0  0  0  0  0  0  0  0  0  0  0  0
  147.7370  159.1390  132.4890 C   0  0  0  0  0  0  0  0  0  0  0  0
  146.6300  158.7760  133.1750 N   0  0  0  0  0  0  0  0  0  0  0  0
  145.4040  159.5200  133.2930 C   0  0  0  0  0  0  0  0  0  0  0  0
  144.3580  159.1200  132.7180 O   0  0  0  0  0  0  0  0  0  0  0  0
  145.3600  160.6830  134.0510 O   0  0  0  0  0  0  0  0  0  0  0  0
  143.9400  156.2840  135.0200 H   0  0  0  0  0  0  0  0  0  0  0  0
  144.1300  157.6660  133.8910 H   0  0  0  0  0  0  0  0  0  0  0  0
  148.5924  156.0971  133.4038 H   0  0  0  0  0  0  0  0  0  0  0  0
  150.6135  157.4072  131.8672 H   0  0  0  0  0  0  0  0  0  0  0  0
  151.1240  159.5386  130.6314 H   0  0  0  0  0  0  0  0  0  0  0  0
  150.4564  162.1634  130.7227 H   0  0  0  0  0  0  0  0  0  0  0  0
  147.2275  161.1320  131.7649 H   0  0  0  0  0  0  0  0  0  0  0  0
  1  2  1  0
  2  3  2  0
  2  4  1  0
  4  5  2  0
  5  6  1  0
  6  7  2  0
  7  8  1  0
  8  9  2  0
  9 10  1  0
 10 11  1  0
 10 12  1  0
  9 13  1  0
 13 14  2  0
 14 15  1  0
 15 16  1  0
 16 17  2  0
 16 18  1  0
 15  4  1  0
 14  6  1  0
  1 19  1  0
  1 20  1  0
  5 21  1  0
  7 22  1  0
  8 23  1  0
 10 24  1  0
 13 25  1  0
M  CHG  1  18  -1
M  END
>  <UniqueID>  (30) 
30

>  <SMILES>  (30) 
NC(=O)c1cc2ccc(C(F)F)cc2n1C(=O)[O-]

>  <Energy>  (30) 
65.23981379161881

>  <Genealogy>  (30) 
NC(=O)c1cc2ccc(C(F)F)cc2n1C(=O)[O-] (protonated)
NC(=O)c1cc2ccc(C(F)F)cc2n1C(=O)[O-] (3D coordinates assigned)
NC(=O)c1cc2ccc(C(F)F)cc2n1C(=O)[O-] (optimized conformer: 65.23981379161881 kcal/mol)

>  <smiles>  (30) 
NC(=O)c1cc2ccc(C(F)F)cc2n1C(=O)O

>  <score_type>  (30) 
oracle

>  <origin>  (30) 
adg

>  <m_score__min__energy>  (30) 
-5.3399999999999999

>  <m_primary>  (30) 
energy

$$$$
30:0
     RDKit          3D

 30 31  0  0  0  0  0  0  0  0999 V2000
  145.7850  162.7210  134.4830 C   0  0  0  0  0  0  0  0  0  0  0  0
  144.7340  161.8670  133.8490 C   0  0  0  0  0  0  0  0  0  0  0  0
  143.7090  162.4140  133.3620 O   0  0  0  0  0  0  0  0  0  0  0  0
  144.8680  160.4350  133.8040 N   0  0  0  0  0  0  0  0  0  0  0  0
  143.8900  159.5130  134.0260 C   0  0  0  0  0  0  0  0  0  0  0  0
  142.5210  159.8020  134.5020 C   0  0  0  0  0  0  0  0  0  0  0  0
  141.6380  160.6430  133.7570 N   0  0  0  0  0  0  0  0  0  0  0  0
  142.1410  159.3370  135.6090 O   0  0  0  0  0  0  0  0  0  0  0  0
  144.3570  158.2280  133.7630 C   0  0  0  0  0  0  0  0  0  0  0  0
  145.6660  158.3900  133.3730 C   0  0  0  0  0  0  0  0  0  0  0  0
  146.6040  157.4420  132.9750 C   0  0  0  0  0  0  0  0  0  0  0  0
  147.8730  157.8970  132.5780 C   0  0  0  0  0  0  0  0  0  0  0  0
  148.1700  159.2820  132.5640 C   0  0  0  0  0  0  0  0  0  0  0  0
  149.5360  159.7560  132.1510 C   0  0  0  0  0  0  0  0  0  0  0  0
  149.4680  160.4100  130.8090 C   0  0  0  0  0  0  0  0  0  0  0  0
  149.5740  159.7200  129.7610 O   0  0  0  0  0  0  0  0  0  0  0  0
  149.2360  161.7770  130.7120 O   0  0  0  0  0  0  0  0  0  0  0  0
  147.1960  160.2140  132.9810 C   0  0  0  0  0  0  0  0  0  0  0  0
  145.9490  159.7320  133.3990 C   0  0  0  0  0  0  0  0  0  0  0  0
  145.7015  162.6531  135.5777 H   0  0  0  0  0  0  0  0  0  0  0  0
  146.7797  162.3720  134.1688 H   0  0  0  0  0  0  0  0  0  0  0  0
  145.6470  163.7661  134.1688 H   0  0  0  0  0  0  0  0  0  0  0  0
  140.6570  160.7900  134.0850 H   0  0  0  0  0  0  0  0  0  0  0  0
  141.9770  161.1970  132.9410 H   0  0  0  0  0  0  0  0  0  0  0  0
  143.7982  157.2844  133.8488 H   0  0  0  0  0  0  0  0  0  0  0  0
  146.3596  156.3695  132.9713 H   0  0  0  0  0  0  0  0  0  0  0  0
  148.6423  157.1713  132.2755 H   0  0  0  0  0  0  0  0  0  0  0  0
  149.9088  160.4802  132.8903 H   0  0  0  0  0  0  0  0  0  0  0  0
  150.2158  158.8929  132.0971 H   0  0  0  0  0  0  0  0  0  0  0  0
  147.4108  161.2928  132.9779 H   0  0  0  0  0  0  0  0  0  0  0  0
  1  2  1  0
  2  3  2  0
  2  4  1  0
  4  5  1  0
  5  6  1  0
  6  7  1  0
  6  8  2  0
  5  9  2  0
  9 10  1  0
 10 11  2  0
 11 12  1  0
 12 13  2  0
 13 14  1  0
 14 15  1  0
 15 16  2  0
 15 17  1  0
 13 18  1  0
 18 19  2  0
 19  4  1  0
 19 10  1  0
  1 20  1  0
  1 21  1  0
  1 22  1  0
  7 23  1  0
  7 24  1  0
  9 25  1  0
 11 26  1  0
 12 27  1  0
 14 28  1  0
 14 29  1  0
 18 30  1  0
M  CHG  1  17  -1
M  END
>  <UniqueID>  (31) 
31

>  <SMILES>  (31) 
CC(=O)n1c(C(N)=O)cc2ccc(CC(=O)[O-])cc21

>  <Energy>  (31) 
67.83322824389235

>  <Genealogy>  (31) 
CC(=O)n1c(C(N)=O)cc2ccc(CC(=O)[O-])cc21 (protonated)
CC(=O)n1c(C(N)=O)cc2ccc(CC(=O)[O-])cc21 (3D coordinates assigned)
CC(=O)n1c(C(N)=O)cc2ccc(CC(=O)[O-])cc21 (optimized conformer: 67.83322824389235 kcal/mol)

>  <smiles>  (31) 
CC(=O)n1c(C(N)=O)cc2ccc(CC(=O)O)cc21

>  <score_type>  (31) 
oracle

>  <origin>  (31) 
adg

>  <m_score__min__energy>  (31) 
-6.5599999999999996

>  <m_primary>  (31) 
energy

$$$$
31:0
     RDKit          3D

 37 39  0  0  0  0  0  0  0  0999 V2000
  141.4600  157.9620  132.9910 C   0  0  0  0  0  0  0  0  0  0  0  0
  142.8450  157.7690  132.7270 O   0  0  0  0  0  0  0  0  0  0  0  0
  143.8110  157.7600  133.7370 C   0  0  0  0  0  0  0  0  0  0  0  0
  143.5810  157.1760  134.8320 O   0  0  0  0  0  0  0  0  0  0  0  0
  145.0780  158.4000  133.5170 N   0  0  0  0  0  0  0  0  0  0  0  0
  145.3680  159.7300  133.5770 C   0  0  0  0  0  0  0  0  0  0  0  0
  144.3920  160.8270  133.7540 C   0  0  0  0  0  0  0  0  0  0  0  0
  143.0360  160.6390  133.3580 N   0  0  0  0  0  0  0  0  0  0  0  0
  144.7350  161.9160  134.2830 O   0  0  0  0  0  0  0  0  0  0  0  0
  146.7290  159.9430  133.3620 C   0  0  0  0  0  0  0  0  0  0  0  0
  147.2660  158.6930  133.1610 C   0  0  0  0  0  0  0  0  0  0  0  0
  148.5810  158.3140  132.9120 C   0  0  0  0  0  0  0  0  0  0  0  0
  148.8580  156.9450  132.7710 C   0  0  0  0  0  0  0  0  0  0  0  0
  147.8240  155.9770  132.8870 C   0  0  0  0  0  0  0  0  0  0  0  0
  148.1290  154.5310  132.7480 C   0  0  0  0  0  0  0  0  0  0  0  0
  149.3750  154.1030  132.2660 C   0  0  0  0  0  0  0  0  0  0  0  0
  149.6490  152.7410  132.1400 C   0  0  0  0  0  0  0  0  0  0  0  0
  148.6730  151.7990  132.4930 C   0  0  0  0  0  0  0  0  0  0  0  0
  148.9420  150.3910  132.3670 N   0  0  0  0  0  0  0  0  0  0  0  0
  150.0230  149.9910  131.8870 O   0  0  0  0  0  0  0  0  0  0  0  0
  148.0120  149.4610  132.7740 O   0  0  0  0  0  0  0  0  0  0  0  0
  147.4630  152.2330  132.9590 N   0  0  0  0  0  0  0  0  0  0  0  0
  147.1770  153.5570  133.0920 C   0  0  0  0  0  0  0  0  0  0  0  0
  146.4990  156.4070  133.1410 C   0  0  0  0  0  0  0  0  0  0  0  0
  146.2500  157.7780  133.2570 C   0  0  0  0  0  0  0  0  0  0  0  0
  141.2937  157.9852  134.0781 H   0  0  0  0  0  0  0  0  0  0  0  0
  141.1318  158.9146  132.5495 H   0  0  0  0  0  0  0  0  0  0  0  0
  140.8839  157.1355  132.5495 H   0  0  0  0  0  0  0  0  0  0  0  0
  142.7810  159.9380  132.6270 H   0  0  0  0  0  0  0  0  0  0  0  0
  147.2603  160.9061  133.3547 H   0  0  0  0  0  0  0  0  0  0  0  0
  149.3804  159.0649  132.8280 H   0  0  0  0  0  0  0  0  0  0  0  0
  149.8883  156.6175  132.5682 H   0  0  0  0  0  0  0  0  0  0  0  0
  150.1385  154.8439  131.9865 H   0  0  0  0  0  0  0  0  0  0  0  0
  150.6278  152.4074  131.7649 H   0  0  0  0  0  0  0  0  0  0  0  0
  146.7250  151.5430  133.2230 H   0  0  0  0  0  0  0  0  0  0  0  0
  146.1923  153.8669  133.4720 H   0  0  0  0  0  0  0  0  0  0  0  0
  145.6823  155.6774  133.2449 H   0  0  0  0  0  0  0  0  0  0  0  0
  1  2  1  0
  2  3  1  0
  3  4  2  0
  3  5  1  0
  5  6  1  0
  6  7  1  0
  7  8  1  0
  7  9  2  0
  6 10  2  0
 10 11  1  0
 11 12  2  0
 12 13  1  0
 13 14  2  0
 14 15  1  0
 15 16  2  0
 16 17  1  0
 17 18  2  0
 18 19  1  0
 19 20  2  0
 19 21  1  0
 18 22  1  0
 22 23  2  0
 14 24  1  0
 24 25  2  0
 25  5  1  0
 25 11  1  0
 23 15  1  0
  1 26  1  0
  1 27  1  0
  1 28  1  0
  8 29  1  0
 10 30  1  0
 12 31  1  0
 13 32  1  0
 16 33  1  0
 17 34  1  0
 22 35  1  0
 23 36  1  0
 24 37  1  0
M  CHG  4   8  -1  19   1  21  -1  22   1
M  END
>  <UniqueID>  (32) 
32

>  <SMILES>  (32) 
COC(=O)n1c(C([NH-])=O)cc2ccc(-c3ccc([N+](=O)[O-])[nH+]c3)cc21

>  <Energy>  (32) 
82.56997452227658

>  <Genealogy>  (32) 
COC(=O)n1c(C([NH-])=O)cc2ccc(-c3ccc([N+](=O)[O-])[nH+]c3)cc21 (protonated)
COC(=O)n1c(C([NH-])=O)cc2ccc(-c3ccc([N+](=O)[O-])[nH+]c3)cc21 (3D coordinates assigned)
COC(=O)n1c(C([NH-])=O)cc2ccc(-c3ccc([N+](=O)[O-])[nH+]c3)cc21 (optimized conformer: 82.56997452227658 kcal/mol)

>  <smiles>  (32) 
COC(=O)n1c(C(N)=O)cc2ccc(-c3ccc([N+](=O)[O-])nc3)cc21

>  <score_type>  (32) 
oracle

>  <origin>  (32) 
adg

>  <m_score__min__energy>  (32) 
-7.5700000000000003

>  <m_primary>  (32) 
energy

$$$$
32:0
     RDKit          3D

 35 36  0  0  0  0  0  0  0  0999 V2000
  148.7930  159.0100  134.1320 C   0  0  0  0  0  0  0  0  0  0  0  0
  148.0610  159.2790  133.0430 C   0  0  0  0  0  0  0  0  0  0  0  0
  146.9690  158.3380  132.6240 C   0  0  0  0  0  0  0  0  0  0  0  0
  145.6450  158.8110  133.1590 C   0  0  0  0  0  0  0  0  0  0  0  0
  145.4130  160.1970  133.3500 C   0  0  0  0  0  0  0  0  0  0  0  0
  144.2000  160.6490  133.8950 C   0  0  0  0  0  0  0  0  0  0  0  0
  143.2430  159.6980  134.2390 C   0  0  0  0  0  0  0  0  0  0  0  0
  142.0020  159.8600  134.8090 C   0  0  0  0  0  0  0  0  0  0  0  0
  141.4900  158.5720  134.9490 C   0  0  0  0  0  0  0  0  0  0  0  0
  140.1270  158.2880  135.4460 C   0  0  0  0  0  0  0  0  0  0  0  0
  139.9020  158.1340  136.8470 N   0  0  0  0  0  0  0  0  0  0  0  0
  139.1520  158.2170  134.6530 O   0  0  0  0  0  0  0  0  0  0  0  0
  142.3830  157.6480  134.4900 N   0  0  0  0  0  0  0  0  0  0  0  0
  142.2640  156.2160  134.5280 C   0  0  0  0  0  0  0  0  0  0  0  0
  141.3660  155.6350  133.8630 O   0  0  0  0  0  0  0  0  0  0  0  0
  143.1550  155.4570  135.2760 O   0  0  0  0  0  0  0  0  0  0  0  0
  143.4500  158.3550  134.0550 C   0  0  0  0  0  0  0  0  0  0  0  0
  144.6560  157.8750  133.5310 C   0  0  0  0  0  0  0  0  0  0  0  0
  148.2480  160.4420  132.2770 O   0  0  0  0  0  0  0  0  0  0  0  0
  148.2520  160.4890  130.8530 C   0  0  0  0  0  0  0  0  0  0  0  0
  149.6480  160.1780  130.3390 C   0  0  0  0  0  0  0  0  0  0  0  0
  149.5936  159.6984  134.4404 H   0  0  0  0  0  0  0  0  0  0  0  0
  148.5936  158.1006  134.7179 H   0  0  0  0  0  0  0  0  0  0  0  0
  146.9244  158.2986  131.5256 H   0  0  0  0  0  0  0  0  0  0  0  0
  147.1827  157.3367  133.0263 H   0  0  0  0  0  0  0  0  0  0  0  0
  146.1893  160.9239  133.0691 H   0  0  0  0  0  0  0  0  0  0  0  0
  144.0117  161.7223  134.0456 H   0  0  0  0  0  0  0  0  0  0  0  0
  141.5169  160.8053  135.0938 H   0  0  0  0  0  0  0  0  0  0  0  0
  139.1040  158.6170  137.3170 H   0  0  0  0  0  0  0  0  0  0  0  0
  144.8288  156.7952  133.4121 H   0  0  0  0  0  0  0  0  0  0  0  0
  147.5426  159.7459  130.4598 H   0  0  0  0  0  0  0  0  0  0  0  0
  147.9540  161.4937  130.5188 H   0  0  0  0  0  0  0  0  0  0  0  0
  150.3271  160.0267  131.1910 H   0  0  0  0  0  0  0  0  0  0  0  0
  149.6183  159.2644  129.7270 H   0  0  0  0  0  0  0  0  0  0  0  0
  150.0089  161.0177  129.7270 H   0  0  0  0  0  0  0  0  0  0  0  0
  1  2  2  0
  2  3  1  0
  3  4  1  0
  4  5  2  0
  5  6  1  0
  6  7  2  0
  7  8  1  0
  8  9  2  0
  9 10  1  0
 10 11  1  0
 10 12  2  0
  9 13  1  0
 13 14  1  0
 14 15  2  0
 14 16  1  0
 13 17  1  0
 17 18  2  0
  2 19  1  0
 19 20  1  0
 20 21  1  0
 18  4  1  0
 17  7  1  0
  1 22  1  0
  1 23  1  0
  3 24  1  0
  3 25  1  0
  5 26  1  0
  6 27  1  0
  8 28  1  0
 11 29  1  0
 18 30  1  0
 20 31  1  0
 20 32  1  0
 21 33  1  0
 21 34  1  0
 21 35  1  0
M  CHG  2  11  -1  16  -1
M  END
>  <UniqueID>  (33) 
33

>  <SMILES>  (33) 
C=C(Cc1ccc2cc(C([NH-])=O)n(C(=O)[O-])c2c1)OCC

>  <Energy>  (33) 
68.52606282539523

>  <Genealogy>  (33) 
C=C(Cc1ccc2cc(C([NH-])=O)n(C(=O)[O-])c2c1)OCC (protonated)
C=C(Cc1ccc2cc(C([NH-])=O)n(C(=O)[O-])c2c1)OCC (3D coordinates assigned)
C=C(Cc1ccc2cc(C([NH-])=O)n(C(=O)[O-])c2c1)OCC (optimized conformer: 68.52606282539523 kcal/mol)

>  <smiles>  (33) 
C=C(Cc1ccc2cc(C(N)=O)n(C(=O)O)c2c1)OCC

>  <score_type>  (33) 
oracle

>  <origin>  (33) 
adg

>  <m_score__min__energy>  (33) 
-6.4400000000000004

>  <m_primary>  (33) 
energy

$$$$
33:0
     RDKit          3D

 41 43  0  0  0  0  0  0  0  0999 V2000
  139.8930  158.5660  136.2330 N   0  0  0  0  0  0  0  0  0  0  0  0
  140.2460  158.6250  134.8540 C   0  0  0  0  0  0  0  0  0  0  0  0
  139.3370  158.6080  133.9820 O   0  0  0  0  0  0  0  0  0  0  0  0
  141.6560  158.7620  134.4360 C   0  0  0  0  0  0  0  0  0  0  0  0
  142.2560  159.9880  134.1570 C   0  0  0  0  0  0  0  0  0  0  0  0
  143.5770  159.7000  133.9050 C   0  0  0  0  0  0  0  0  0  0  0  0
  144.6290  160.5470  133.5670 C   0  0  0  0  0  0  0  0  0  0  0  0
  145.8880  159.9720  133.3360 C   0  0  0  0  0  0  0  0  0  0  0  0
  146.0720  158.5690  133.4330 C   0  0  0  0  0  0  0  0  0  0  0  0
  147.4230  157.9460  133.1900 C   0  0  0  0  0  0  0  0  0  0  0  0
  148.6210  158.8510  133.0210 C   0  0  0  0  0  0  0  0  0  0  0  0
  148.8540  159.7320  133.8920 O   0  0  0  0  0  0  0  0  0  0  0  0
  149.4900  158.7810  131.8830 N   0  0  0  0  0  0  0  0  0  0  0  0
  149.1650  159.1200  130.4990 C   0  0  0  0  0  0  0  0  0  0  0  0
  149.9770  160.3180  129.9890 C   0  0  0  0  0  0  0  0  0  0  0  0
  149.3590  161.6660  130.3670 C   0  0  0  0  0  0  0  0  0  0  0  0
  148.5070  161.5150  131.4690 O   0  0  0  0  0  0  0  0  0  0  0  0
  147.5000  156.5520  132.5700 C   0  0  0  0  0  0  0  0  0  0  0  0
  147.6750  156.7130  134.0660 C   0  0  0  0  0  0  0  0  0  0  0  0
  144.9810  157.7430  133.7840 C   0  0  0  0  0  0  0  0  0  0  0  0
  143.7410  158.3450  134.0270 C   0  0  0  0  0  0  0  0  0  0  0  0
  142.5690  157.7530  134.3510 N   0  0  0  0  0  0  0  0  0  0  0  0
  142.3310  156.3410  134.4740 C   0  0  0  0  0  0  0  0  0  0  0  0
  143.0270  155.6440  135.2590 O   0  0  0  0  0  0  0  0  0  0  0  0
  141.3490  155.7250  133.7080 O   0  0  0  0  0  0  0  0  0  0  0  0
  139.3910  159.3580  136.6930 H   0  0  0  0  0  0  0  0  0  0  0  0
  141.7749  160.9771  134.1415 H   0  0  0  0  0  0  0  0  0  0  0  0
  144.4779  161.6334  133.4836 H   0  0  0  0  0  0  0  0  0  0  0  0
  146.7412  160.6161  133.0770 H   0  0  0  0  0  0  0  0  0  0  0  0
  149.3795  158.2496  129.8615 H   0  0  0  0  0  0  0  0  0  0  0  0
  148.1001  159.3928  130.4596 H   0  0  0  0  0  0  0  0  0  0  0  0
  150.9884  160.2638  130.4182 H   0  0  0  0  0  0  0  0  0  0  0  0
  149.9924  160.2604  128.8906 H   0  0  0  0  0  0  0  0  0  0  0  0
  150.1607  162.3747  130.6218 H   0  0  0  0  0  0  0  0  0  0  0  0
  148.7786  162.0470  129.5138 H   0  0  0  0  0  0  0  0  0  0  0  0
  148.9430  160.8530  132.0650 H   0  0  0  0  0  0  0  0  0  0  0  0
  146.5908  156.0777  132.1720 H   0  0  0  0  0  0  0  0  0  0  0  0
  148.0938  156.0937  131.7654 H   0  0  0  0  0  0  0  0  0  0  0  0
  146.8925  156.3572  134.7523 H   0  0  0  0  0  0  0  0  0  0  0  0
  148.4466  156.4216  134.7938 H   0  0  0  0  0  0  0  0  0  0  0  0
  145.1031  156.6528  133.8644 H   0  0  0  0  0  0  0  0  0  0  0  0
  1  2  1  0
  2  3  2  0
  2  4  1  0
  4  5  2  0
  5  6  1  0
  6  7  2  0
  7  8  1  0
  8  9  2  0
  9 10  1  0
 10 11  1  0
 11 12  2  0
 11 13  1  0
 13 14  1  0
 14 15  1  0
 15 16  1  0
 16 17  1  0
 10 18  1  0
 18 19  1  0
  9 20  1  0
 20 21  2  0
 21 22  1  0
 22 23  1  0
 23 24  2  0
 23 25  1  0
 22  4  1  0
 21  6  1  0
 19 10  1  0
  1 26  1  0
  5 27  1  0
  7 28  1  0
  8 29  1  0
 14 30  1  0
 14 31  1  0
 15 32  1  0
 15 33  1  0
 16 34  1  0
 16 35  1  0
 17 36  1  0
 18 37  1  0
 18 38  1  0
 19 39  1  0
 19 40  1  0
 20 41  1  0
M  CHG  3   1  -1  13  -1  25  -1
M  END
>  <UniqueID>  (34) 
34

>  <SMILES>  (34) 
[NH-]C(=O)c1cc2ccc(C3(C(=O)[N-]CCCO)CC3)cc2n1C(=O)[O-]

>  <Energy>  (34) 
343.5399073048162

>  <Genealogy>  (34) 
[NH-]C(=O)c1cc2ccc(C3(C(=O)[N-]CCCO)CC3)cc2n1C(=O)[O-] (protonated)
[NH-]C(=O)c1cc2ccc(C3(C(=O)[N-]CCCO)CC3)cc2n1C(=O)[O-] (3D coordinates assigned)
[NH-]C(=O)c1cc2ccc(C3(C(=O)[N-]CCCO)CC3)cc2n1C(=O)[O-] (nonaromatic ring conformer: 343.5399073048162 kcal/mol)

>  <smiles>  (34) 
NC(=O)c1cc2ccc(C3(C(=O)NCCCO)CC3)cc2n1C(=O)O

>  <score_type>  (34) 
oracle

>  <origin>  (34) 
adg

>  <m_score__min__energy>  (34) 
-6.9299999999999997

>  <m_primary>  (34) 
energy

$$$$
34:0
     RDKit          3D

 47 49  0  0  0  0  0  0  0  0999 V2000
  148.4390  156.0800  133.0740 C   0  0  0  0  0  0  0  0  0  0  0  0
  147.4070  155.4420  133.9550 C   0  0  0  0  0  0  0  0  0  0  0  0
  147.4990  155.5920  135.2030 O   0  0  0  0  0  0  0  0  0  0  0  0
  146.3100  154.6120  133.3990 C   0  0  0  0  0  0  0  0  0  0  0  0
  146.5750  153.2580  133.1300 C   0  0  0  0  0  0  0  0  0  0  0  0
  145.6070  152.4470  132.5360 C   0  0  0  0  0  0  0  0  0  0  0  0
  144.3600  152.9740  132.2040 C   0  0  0  0  0  0  0  0  0  0  0  0
  144.0700  154.3110  132.4840 C   0  0  0  0  0  0  0  0  0  0  0  0
  145.0270  155.1380  133.0970 C   0  0  0  0  0  0  0  0  0  0  0  0
  144.6310  156.5150  133.4650 C   0  0  0  0  0  0  0  0  0  0  0  0
  143.3470  156.7650  134.0100 C   0  0  0  0  0  0  0  0  0  0  0  0
  142.9550  158.0710  134.3470 C   0  0  0  0  0  0  0  0  0  0  0  0
  143.8640  159.1010  134.1290 C   0  0  0  0  0  0  0  0  0  0  0  0
  143.7360  160.4540  134.3470 C   0  0  0  0  0  0  0  0  0  0  0  0
  144.9480  161.0100  133.9430 C   0  0  0  0  0  0  0  0  0  0  0  0
  145.2890  162.4440  134.0850 C   0  0  0  0  0  0  0  0  0  0  0  0
  146.6100  162.8470  134.4560 N   0  0  0  0  0  0  0  0  0  0  0  0
  144.4230  163.3270  133.8520 O   0  0  0  0  0  0  0  0  0  0  0  0
  145.7920  160.0380  133.4920 N   0  0  0  0  0  0  0  0  0  0  0  0
  147.1120  160.2060  132.9490 C   0  0  0  0  0  0  0  0  0  0  0  0
  148.0830  160.4370  133.7190 O   0  0  0  0  0  0  0  0  0  0  0  0
  147.3180  160.1240  131.5350 N   0  0  0  0  0  0  0  0  0  0  0  0
  148.6200  159.9000  130.9130 C   0  0  0  0  0  0  0  0  0  0  0  0
  149.3590  161.2300  130.7440 C   0  0  0  0  0  0  0  0  0  0  0  0
  149.4310  158.9420  131.7850 C   0  0  0  0  0  0  0  0  0  0  0  0
  145.1120  158.8760  133.6110 C   0  0  0  0  0  0  0  0  0  0  0  0
  145.5210  157.5880  133.2460 C   0  0  0  0  0  0  0  0  0  0  0  0
  149.2097  156.5564  133.6978 H   0  0  0  0  0  0  0  0  0  0  0  0
  148.9045  155.3119  132.4390 H   0  0  0  0  0  0  0  0  0  0  0  0
  147.9599  156.8398  132.4390 H   0  0  0  0  0  0  0  0  0  0  0  0
  147.5557  152.8332  133.3904 H   0  0  0  0  0  0  0  0  0  0  0  0
  145.8286  151.3896  132.3293 H   0  0  0  0  0  0  0  0  0  0  0  0
  143.6044  152.3367  131.7214 H   0  0  0  0  0  0  0  0  0  0  0  0
  143.0833  154.7208  132.2223 H   0  0  0  0  0  0  0  0  0  0  0  0
  142.6509  155.9286  134.1706 H   0  0  0  0  0  0  0  0  0  0  0  0
  141.9600  158.2730  134.7702 H   0  0  0  0  0  0  0  0  0  0  0  0
  142.8622  160.9839  134.7539 H   0  0  0  0  0  0  0  0  0  0  0  0
  146.8500  163.8610  134.5120 H   0  0  0  0  0  0  0  0  0  0  0  0
  147.3390  162.1470  134.7130 H   0  0  0  0  0  0  0  0  0  0  0  0
  148.4831  159.4553  129.9163 H   0  0  0  0  0  0  0  0  0  0  0  0
  149.5916  161.6486  131.7343 H   0  0  0  0  0  0  0  0  0  0  0  0
  150.2933  161.0623  130.1882 H   0  0  0  0  0  0  0  0  0  0  0  0
  148.7231  161.9347  130.1882 H   0  0  0  0  0  0  0  0  0  0  0  0
  149.2432  159.1638  132.8459 H   0  0  0  0  0  0  0  0  0  0  0  0
  149.1312  157.9060  131.5683 H   0  0  0  0  0  0  0  0  0  0  0  0
  150.5022  159.0667  131.5683 H   0  0  0  0  0  0  0  0  0  0  0  0
  146.5116  157.4165  132.7995 H   0  0  0  0  0  0  0  0  0  0  0  0
  1  2  1  0
  2  3  2  0
  2  4  1  0
  4  5  2  0
  5  6  1  0
  6  7  2  0
  7  8  1  0
  8  9  2  0
  9 10  1  0
 10 11  2  0
 11 12  1  0
 12 13  2  0
 13 14  1  0
 14 15  2  0
 15 16  1  0
 16 17  1  0
 16 18  2  0
 15 19  1  0
 19 20  1  0
 20 21  2  0
 20 22  1  0
 22 23  1  0
 23 24  1  0
 23 25  1  0
 19 26  1  0
 26 27  2  0
  9  4  1  0
 27 10  1  0
 26 13  1  0
  1 28  1  0
  1 29  1  0
  1 30  1  0
  5 31  1  0
  6 32  1  0
  7 33  1  0
  8 34  1  0
 11 35  1  0
 12 36  1  0
 14 37  1  0
 17 38  1  0
 17 39  1  0
 23 40  1  0
 24 41  1  0
 24 42  1  0
 24 43  1  0
 25 44  1  0
 25 45  1  0
 25 46  1  0
 27 47  1  0
M  CHG  1  22  -1
M  END
>  <UniqueID>  (35) 
35

>  <SMILES>  (35) 
CC(=O)c1ccccc1-c1ccc2cc(C(N)=O)n(C(=O)[N-]C(C)C)c2c1

>  <Energy>  (35) 
91.7948378651162

>  <Genealogy>  (35) 
CC(=O)c1ccccc1-c1ccc2cc(C(N)=O)n(C(=O)[N-]C(C)C)c2c1 (protonated)
CC(=O)c1ccccc1-c1ccc2cc(C(N)=O)n(C(=O)[N-]C(C)C)c2c1 (3D coordinates assigned)
CC(=O)c1ccccc1-c1ccc2cc(C(N)=O)n(C(=O)[N-]C(C)C)c2c1 (optimized conformer: 91.7948378651162 kcal/mol)

>  <smiles>  (35) 
CC(=O)c1ccccc1-c1ccc2cc(C(N)=O)n(C(=O)NC(C)C)c2c1

>  <score_type>  (35) 
oracle

>  <origin>  (35) 
adg

>  <m_score__min__energy>  (35) 
-8.7599999999999998

>  <m_primary>  (35) 
energy

$$$$
35:0
     RDKit          3D

 40 42  0  0  0  0  0  0  0  0999 V2000
  144.3930  154.1070  131.4040 C   0  0  0  0  0  0  0  0  0  0  0  0
  145.2230  153.1610  132.1640 N   0  0  0  0  0  0  0  0  0  0  0  0
  144.4180  152.0120  132.6150 C   0  0  0  0  0  0  0  0  0  0  0  0
  145.8340  153.8490  133.2790 C   0  0  0  0  0  0  0  0  0  0  0  0
  145.2350  153.9280  134.3890 O   0  0  0  0  0  0  0  0  0  0  0  0
  147.0510  154.5860  133.0890 N   0  0  0  0  0  0  0  0  0  0  0  0
  148.2890  154.1060  132.7840 C   0  0  0  0  0  0  0  0  0  0  0  0
  148.6670  152.6810  132.7140 C   0  0  0  0  0  0  0  0  0  0  0  0
  147.7950  151.7430  132.0880 N   0  0  0  0  0  0  0  0  0  0  0  0
  149.7670  152.2840  133.1800 O   0  0  0  0  0  0  0  0  0  0  0  0
  149.1880  155.1570  132.6060 C   0  0  0  0  0  0  0  0  0  0  0  0
  148.4550  156.3030  132.8200 C   0  0  0  0  0  0  0  0  0  0  0  0
  148.8390  157.6390  132.7610 C   0  0  0  0  0  0  0  0  0  0  0  0
  147.8600  158.6180  133.0040 C   0  0  0  0  0  0  0  0  0  0  0  0
  146.5190  158.2500  133.2940 C   0  0  0  0  0  0  0  0  0  0  0  0
  145.4900  159.2920  133.5400 C   0  0  0  0  0  0  0  0  0  0  0  0
  144.1210  158.9660  133.5180 C   0  0  0  0  0  0  0  0  0  0  0  0
  143.1540  159.9490  133.7490 C   0  0  0  0  0  0  0  0  0  0  0  0
  143.5410  161.2670  134.0020 C   0  0  0  0  0  0  0  0  0  0  0  0
  144.8960  161.6050  134.0250 C   0  0  0  0  0  0  0  0  0  0  0  0
  145.2700  162.8850  134.2670 F   0  0  0  0  0  0  0  0  0  0  0  0
  145.8670  160.6250  133.7960 C   0  0  0  0  0  0  0  0  0  0  0  0
  146.1710  156.8790  133.3450 C   0  0  0  0  0  0  0  0  0  0  0  0
  147.1700  155.9290  133.1110 C   0  0  0  0  0  0  0  0  0  0  0  0
  143.8324  154.7459  132.1022 H   0  0  0  0  0  0  0  0  0  0  0  0
  145.0379  154.7338  130.7706 H   0  0  0  0  0  0  0  0  0  0  0  0
  143.6877  153.5491  130.7706 H   0  0  0  0  0  0  0  0  0  0  0  0
  145.9730  152.8040  131.5280 H   0  0  0  0  0  0  0  0  0  0  0  0
  144.3998  151.9861  133.7145 H   0  0  0  0  0  0  0  0  0  0  0  0
  143.3911  152.1115  132.2336 H   0  0  0  0  0  0  0  0  0  0  0  0
  144.8622  151.0808  132.2336 H   0  0  0  0  0  0  0  0  0  0  0  0
  147.0610  152.0580  131.4150 H   0  0  0  0  0  0  0  0  0  0  0  0
  150.2553  155.0858  132.3493 H   0  0  0  0  0  0  0  0  0  0  0  0
  149.8772  157.9206  132.5312 H   0  0  0  0  0  0  0  0  0  0  0  0
  148.1358  159.6823  132.9691 H   0  0  0  0  0  0  0  0  0  0  0  0
  143.8096  157.9302  133.3176 H   0  0  0  0  0  0  0  0  0  0  0  0
  142.0866  159.6840  133.7314 H   0  0  0  0  0  0  0  0  0  0  0  0
  142.7785  162.0389  134.1832 H   0  0  0  0  0  0  0  0  0  0  0  0
  146.9327  160.8969  133.8159 H   0  0  0  0  0  0  0  0  0  0  0  0
  145.1388  156.5681  133.5636 H   0  0  0  0  0  0  0  0  0  0  0  0
  1  2  1  0
  2  3  1  0
  2  4  1  0
  4  5  2  0
  4  6  1  0
  6  7  1  0
  7  8  1  0
  8  9  1  0
  8 10  2  0
  7 11  2  0
 11 12  1  0
 12 13  2  0
 13 14  1  0
 14 15  2  0
 15 16  1  0
 16 17  2  0
 17 18  1  0
 18 19  2  0
 19 20  1  0
 20 21  1  0
 20 22  2  0
 15 23  1  0
 23 24  2  0
 24  6  1  0
 24 12  1  0
 22 16  1  0
  1 25  1  0
  1 26  1  0
  1 27  1  0
  2 28  1  0
  3 29  1  0
  3 30  1  0
  3 31  1  0
  9 32  1  0
 11 33  1  0
 13 34  1  0
 14 35  1  0
 17 36  1  0
 18 37  1  0
 19 38  1  0
 22 39  1  0
 23 40  1  0
M  CHG  2   2   1   9  -1
M  END
>  <UniqueID>  (36) 
36

>  <SMILES>  (36) 
C[NH+](C)C(=O)n1c(C([NH-])=O)cc2ccc(-c3cccc(F)c3)cc21

>  <Energy>  (36) 
88.01009696599745

>  <Genealogy>  (36) 
C[NH+](C)C(=O)n1c(C([NH-])=O)cc2ccc(-c3cccc(F)c3)cc21 (protonated)
C[NH+](C)C(=O)n1c(C([NH-])=O)cc2ccc(-c3cccc(F)c3)cc21 (3D coordinates assigned)
C[NH+](C)C(=O)n1c(C([NH-])=O)cc2ccc(-c3cccc(F)c3)cc21 (optimized conformer: 88.01009696599745 kcal/mol)

>  <smiles>  (36) 
CN(C)C(=O)n1c(C(N)=O)cc2ccc(-c3cccc(F)c3)cc21

>  <score_type>  (36) 
oracle

>  <origin>  (36) 
adg

>  <m_score__min__energy>  (36) 
-7.0499999999999998

>  <m_primary>  (36) 
energy

$$$$
36:0
     RDKit          3D

 36 37  0  0  0  0  0  0  0  0999 V2000
  149.5860  161.3350  130.3540 C   0  0  0  0  0  0  0  0  0  0  0  0
  148.6930  160.2770  130.9930 C   0  0  0  0  0  0  0  0  0  0  0  0
  149.2920  159.7720  132.1840 O   0  0  0  0  0  0  0  0  0  0  0  0
  148.5680  159.1420  133.2040 C   0  0  0  0  0  0  0  0  0  0  0  0
  148.8670  159.3370  134.4140 O   0  0  0  0  0  0  0  0  0  0  0  0
  147.4630  158.1810  132.8610 C   0  0  1  0  0  0  0  0  0  0  0  0
  147.7120  156.7950  133.4660 C   0  0  0  0  0  0  0  0  0  0  0  0
  146.1240  158.7360  133.3030 C   0  0  0  0  0  0  0  0  0  0  0  0
  145.9140  160.1380  133.3270 C   0  0  0  0  0  0  0  0  0  0  0  0
  144.6760  160.6730  133.7210 C   0  0  0  0  0  0  0  0  0  0  0  0
  143.6700  159.7870  134.0910 C   0  0  0  0  0  0  0  0  0  0  0  0
  142.3760  160.0340  134.4870 C   0  0  0  0  0  0  0  0  0  0  0  0
  141.8150  158.7800  134.7220 C   0  0  0  0  0  0  0  0  0  0  0  0
  140.4490  158.5900  135.2520 C   0  0  0  0  0  0  0  0  0  0  0  0
  140.2130  158.4830  136.6530 N   0  0  0  0  0  0  0  0  0  0  0  0
  139.4700  158.5690  134.4590 O   0  0  0  0  0  0  0  0  0  0  0  0
  142.7250  157.7950  134.4720 N   0  0  0  0  0  0  0  0  0  0  0  0
  142.5190  156.3740  134.5110 C   0  0  0  0  0  0  0  0  0  0  0  0
  143.2560  155.6430  135.2240 O   0  0  0  0  0  0  0  0  0  0  0  0
  141.4880  155.7940  133.7820 O   0  0  0  0  0  0  0  0  0  0  0  0
  143.8560  158.4290  134.0900 C   0  0  0  0  0  0  0  0  0  0  0  0
  145.0710  157.8670  133.6820 C   0  0  0  0  0  0  0  0  0  0  0  0
  150.0810  161.9215  131.1420 H   0  0  0  0  0  0  0  0  0  0  0  0
  150.3469  160.8441  129.7295 H   0  0  0  0  0  0  0  0  0  0  0  0
  148.9742  162.0027  129.7295 H   0  0  0  0  0  0  0  0  0  0  0  0
  147.7194  160.7257  131.2395 H   0  0  0  0  0  0  0  0  0  0  0  0
  148.5591  159.4479  130.2826 H   0  0  0  0  0  0  0  0  0  0  0  0
  147.4468  158.0604  131.7677 H   0  0  0  0  0  0  0  0  0  0  0  0
  147.6992  156.8664  134.5636 H   0  0  0  0  0  0  0  0  0  0  0  0
  146.9238  156.1031  133.1343 H   0  0  0  0  0  0  0  0  0  0  0  0
  148.6918  156.4208  133.1343 H   0  0  0  0  0  0  0  0  0  0  0  0
  146.7300  160.8149  133.0337 H   0  0  0  0  0  0  0  0  0  0  0  0
  144.5076  161.7599  133.7363 H   0  0  0  0  0  0  0  0  0  0  0  0
  141.8875  161.0136  134.5952 H   0  0  0  0  0  0  0  0  0  0  0  0
  139.4720  159.0530  137.1190 H   0  0  0  0  0  0  0  0  0  0  0  0
  145.2054  156.7756  133.6562 H   0  0  0  0  0  0  0  0  0  0  0  0
  1  2  1  0
  2  3  1  0
  3  4  1  0
  4  5  2  0
  4  6  1  0
  6  7  1  0
  6  8  1  0
  8  9  2  0
  9 10  1  0
 10 11  2  0
 11 12  1  0
 12 13  2  0
 13 14  1  0
 14 15  1  0
 14 16  2  0
 13 17  1  0
 17 18  1  0
 18 19  2  0
 18 20  1  0
 17 21  1  0
 21 22  2  0
 22  8  1  0
 21 11  1  0
  1 23  1  0
  1 24  1  0
  1 25  1  0
  2 26  1  0
  2 27  1  0
  6 28  1  6
  7 29  1  0
  7 30  1  0
  7 31  1  0
  9 32  1  0
 10 33  1  0
 12 34  1  0
 15 35  1  0
 22 36  1  0
M  CHG  2  15  -1  20  -1
M  END
>  <UniqueID>  (37) 
37

>  <SMILES>  (37) 
CCOC(=O)[C@@H](C)c1ccc2cc(C([NH-])=O)n(C(=O)[O-])c2c1

>  <Energy>  (37) 
69.23385654852872

>  <Genealogy>  (37) 
CCOC(=O)C(C)c1ccc2cc(C([NH-])=O)n(C(=O)[O-])c2c1 (protonated)
CCOC(=O)[C@@H](C)c1ccc2cc(C([NH-])=O)n(C(=O)[O-])c2c1 (chirality)
CCOC(=O)[C@@H](C)c1ccc2cc(C([NH-])=O)n(C(=O)[O-])c2c1 (3D coordinates assigned)
CCOC(=O)[C@@H](C)c1ccc2cc(C([NH-])=O)n(C(=O)[O-])c2c1 (optimized conformer: 69.23385654852872 kcal/mol)

>  <smiles>  (37) 
CCOC(=O)C(C)c1ccc2cc(C(N)=O)n(C(=O)O)c2c1

>  <score_type>  (37) 
oracle

>  <origin>  (37) 
adg

>  <m_score__min__energy>  (37) 
-6.5599999999999996

>  <m_primary>  (37) 
energy

$$$$
37:0
     RDKit          3D

 37 39  0  0  0  0  0  0  0  0999 V2000
  143.5810  156.3530  134.1270 C   0  0  0  0  0  0  0  0  0  0  0  0
  143.2770  157.5810  133.3300 C   0  0  0  0  0  0  0  0  0  0  0  0
  142.2650  157.5950  132.5790 O   0  0  0  0  0  0  0  0  0  0  0  0
  144.0730  158.7680  133.4740 N   0  0  0  0  0  0  0  0  0  0  0  0
  143.6510  160.0460  133.6840 C   0  0  0  0  0  0  0  0  0  0  0  0
  142.2620  160.4640  133.9660 C   0  0  0  0  0  0  0  0  0  0  0  0
  141.3310  159.5640  134.5600 N   0  0  0  0  0  0  0  0  0  0  0  0
  141.9020  161.6460  133.7170 O   0  0  0  0  0  0  0  0  0  0  0  0
  144.7330  160.9240  133.6750 C   0  0  0  0  0  0  0  0  0  0  0  0
  145.8410  160.1350  133.4630 C   0  0  0  0  0  0  0  0  0  0  0  0
  147.1830  160.4850  133.3480 C   0  0  0  0  0  0  0  0  0  0  0  0
  148.1120  159.4590  133.1000 C   0  0  0  0  0  0  0  0  0  0  0  0
  147.6880  158.1110  132.9760 C   0  0  0  0  0  0  0  0  0  0  0  0
  148.6430  157.0750  132.6770 N   0  0  0  0  0  0  0  0  0  0  0  0
  148.2700  155.8730  133.3670 C   0  0  0  0  0  0  0  0  0  0  0  0
  148.1210  154.6150  132.8180 C   0  0  0  0  0  0  0  0  0  0  0  0
  147.6750  153.7770  133.7760 N   0  0  0  0  0  0  0  0  0  0  0  0
  147.5220  154.4810  134.8890 N   0  0  0  0  0  0  0  0  0  0  0  0
  147.0970  153.9120  136.1590 C   0  0  0  0  0  0  0  0  0  0  0  0
  147.8770  155.7640  134.6830 C   0  0  0  0  0  0  0  0  0  0  0  0
  146.3140  157.7990  133.0910 C   0  0  0  0  0  0  0  0  0  0  0  0
  145.4150  158.8380  133.3480 C   0  0  0  0  0  0  0  0  0  0  0  0
  143.5227  156.5885  135.1999 H   0  0  0  0  0  0  0  0  0  0  0  0
  142.8501  155.5677  133.8837 H   0  0  0  0  0  0  0  0  0  0  0  0
  144.5938  155.9994  133.8837 H   0  0  0  0  0  0  0  0  0  0  0  0
  141.2250  158.5880  134.2050 H   0  0  0  0  0  0  0  0  0  0  0  0
  144.7073  162.0155  133.8088 H   0  0  0  0  0  0  0  0  0  0  0  0
  147.5069  161.5315  133.4480 H   0  0  0  0  0  0  0  0  0  0  0  0
  149.1797  159.7045  133.0010 H   0  0  0  0  0  0  0  0  0  0  0  0
  149.6020  157.3680  132.9790 H   0  0  0  0  0  0  0  0  0  0  0  0
  148.6720  156.8920  131.6480 H   0  0  0  0  0  0  0  0  0  0  0  0
  148.3310  154.3418  131.7734 H   0  0  0  0  0  0  0  0  0  0  0  0
  147.5316  154.4938  136.9852 H   0  0  0  0  0  0  0  0  0  0  0  0
  145.9995  153.9435  136.2259 H   0  0  0  0  0  0  0  0  0  0  0  0
  147.4386  152.8685  136.2259 H   0  0  0  0  0  0  0  0  0  0  0  0
  147.8569  156.5740  135.4270 H   0  0  0  0  0  0  0  0  0  0  0  0
  145.9607  156.7631  132.9808 H   0  0  0  0  0  0  0  0  0  0  0  0
  1  2  1  0
  2  3  2  0
  2  4  1  0
  4  5  1  0
  5  6  1  0
  6  7  1  0
  6  8  2  0
  5  9  2  0
  9 10  1  0
 10 11  2  0
 11 12  1  0
 12 13  2  0
 13 14  1  0
 14 15  1  0
 15 16  1  0
 16 17  2  0
 17 18  1  0
 18 19  1  0
 18 20  1  0
 13 21  1  0
 21 22  2  0
 22  4  1  0
 22 10  1  0
 20 15  2  0
  1 23  1  0
  1 24  1  0
  1 25  1  0
  7 26  1  0
  9 27  1  0
 11 28  1  0
 12 29  1  0
 14 30  1  0
 14 31  1  0
 16 32  1  0
 19 33  1  0
 19 34  1  0
 19 35  1  0
 20 36  1  0
 21 37  1  0
M  CHG  2   7  -1  14   1
M  END
>  <UniqueID>  (38) 
38

>  <SMILES>  (38) 
CC(=O)n1c(C([NH-])=O)cc2ccc([NH2+]c3cnn(C)c3)cc21

>  <Energy>  (38) 
109.126364201767

>  <Genealogy>  (38) 
CC(=O)n1c(C([NH-])=O)cc2ccc([NH2+]c3cnn(C)c3)cc21 (protonated)
CC(=O)n1c(C([NH-])=O)cc2ccc([NH2+]c3cnn(C)c3)cc21 (3D coordinates assigned)
CC(=O)n1c(C([NH-])=O)cc2ccc([NH2+]c3cnn(C)c3)cc21 (optimized conformer: 109.126364201767 kcal/mol)

>  <smiles>  (38) 
CC(=O)n1c(C(N)=O)cc2ccc(Nc3cnn(C)c3)cc21

>  <score_type>  (38) 
oracle

>  <origin>  (38) 
adg

>  <m_score__min__energy>  (38) 
-6.9500000000000002

>  <m_primary>  (38) 
energy

$$$$
38:0
     RDKit          3D

 61 63  0  0  0  0  0  0  0  0999 V2000
  137.5940  160.1020  130.7010 C   0  0  0  0  0  0  0  0  0  0  0  0
  138.9730  159.4620  130.8480 C   0  0  0  0  0  0  0  0  0  0  0  0
  139.6990  159.9500  132.1090 C   0  0  0  0  0  0  0  0  0  0  0  0
  139.2960  159.1550  133.2900 N   0  0  0  0  0  0  0  0  0  0  0  0
  138.7170  157.8290  132.9450 C   0  0  0  0  0  0  0  0  0  0  0  0
  139.6430  156.6380  133.2600 C   0  0  0  0  0  0  0  0  0  0  0  0
  141.1020  157.0130  133.0320 C   0  0  0  0  0  0  0  0  0  0  0  0
  141.5300  158.1610  133.9740 C   0  0  1  0  0  0  0  0  0  0  0  0
  142.7310  158.9490  133.4030 C   0  0  0  0  0  0  0  0  0  0  0  0
  144.0400  158.2540  133.6810 C   0  0  0  0  0  0  0  0  0  0  0  0
  145.2670  158.8660  133.3240 C   0  0  0  0  0  0  0  0  0  0  0  0
  146.4880  158.2140  133.5640 C   0  0  0  0  0  0  0  0  0  0  0  0
  146.4490  156.9490  134.1430 C   0  0  0  0  0  0  0  0  0  0  0  0
  147.4770  156.1010  134.4910 C   0  0  0  0  0  0  0  0  0  0  0  0
  146.8600  154.9690  135.0220 C   0  0  0  0  0  0  0  0  0  0  0  0
  147.5990  153.7600  135.4380 C   0  0  0  0  0  0  0  0  0  0  0  0
  147.3650  153.1950  136.7260 N   0  0  0  0  0  0  0  0  0  0  0  0
  148.4620  153.2380  134.6840 O   0  0  0  0  0  0  0  0  0  0  0  0
  145.5040  155.1170  135.0110 N   0  0  0  0  0  0  0  0  0  0  0  0
  144.5080  154.2010  135.4910 C   0  0  0  0  0  0  0  0  0  0  0  0
  144.5010  153.8610  136.7050 O   0  0  0  0  0  0  0  0  0  0  0  0
  143.5370  153.7170  134.6000 O   0  0  0  0  0  0  0  0  0  0  0  0
  143.7640  153.2490  133.2640 C   0  0  0  0  0  0  0  0  0  0  0  0
  143.6050  154.4010  132.2530 C   0  0  0  0  0  0  0  0  0  0  0  0
  142.7000  152.1810  132.9730 C   0  0  0  0  0  0  0  0  0  0  0  0
  145.1590  152.6080  133.1430 C   0  0  0  0  0  0  0  0  0  0  0  0
  145.2700  156.3320  134.4700 C   0  0  0  0  0  0  0  0  0  0  0  0
  144.0400  156.9690  134.2660 C   0  0  0  0  0  0  0  0  0  0  0  0
  140.3410  159.0950  134.3350 C   0  0  0  0  0  0  0  0  0  0  0  0
  137.1724  160.2977  131.6980 H   0  0  0  0  0  0  0  0  0  0  0  0
  137.6863  161.0493  130.1496 H   0  0  0  0  0  0  0  0  0  0  0  0
  136.9301  159.4200  130.1496 H   0  0  0  0  0  0  0  0  0  0  0  0
  138.8539  158.3700  130.9064 H   0  0  0  0  0  0  0  0  0  0  0  0
  139.5768  159.7489  129.9745 H   0  0  0  0  0  0  0  0  0  0  0  0
  140.7845  159.8506  131.9611 H   0  0  0  0  0  0  0  0  0  0  0  0
  139.4305  161.0021  132.2847 H   0  0  0  0  0  0  0  0  0  0  0  0
  137.7838  157.7009  133.5131 H   0  0  0  0  0  0  0  0  0  0  0  0
  138.5551  157.8264  131.8570 H   0  0  0  0  0  0  0  0  0  0  0  0
  139.5063  156.3428  134.3108 H   0  0  0  0  0  0  0  0  0  0  0  0
  139.3845  155.8035  132.5915 H   0  0  0  0  0  0  0  0  0  0  0  0
  141.7343  156.1339  133.2253 H   0  0  0  0  0  0  0  0  0  0  0  0
  141.2199  157.3497  131.9915 H   0  0  0  0  0  0  0  0  0  0  0  0
  141.8635  157.6978  134.9143 H   0  0  0  0  0  0  0  0  0  0  0  0
  142.6056  159.0501  132.3149 H   0  0  0  0  0  0  0  0  0  0  0  0
  142.7566  159.9344  133.8913 H   0  0  0  0  0  0  0  0  0  0  0  0
  145.2635  159.8608  132.8546 H   0  0  0  0  0  0  0  0  0  0  0  0
  147.4453  158.6886  133.3024 H   0  0  0  0  0  0  0  0  0  0  0  0
  148.5562  156.2791  134.3746 H   0  0  0  0  0  0  0  0  0  0  0  0
  146.4020  152.9300  137.0300 H   0  0  0  0  0  0  0  0  0  0  0  0
  143.4741  155.3492  132.7951 H   0  0  0  0  0  0  0  0  0  0  0  0
  144.5034  154.4609  131.6211 H   0  0  0  0  0  0  0  0  0  0  0  0
  142.7240  154.2153  131.6211 H   0  0  0  0  0  0  0  0  0  0  0  0
  142.3072  151.7867  133.9218 H   0  0  0  0  0  0  0  0  0  0  0  0
  141.8790  152.6295  132.3944 H   0  0  0  0  0  0  0  0  0  0  0  0
  143.1515  151.3617  132.3944 H   0  0  0  0  0  0  0  0  0  0  0  0
  145.5652  152.4214  134.1481 H   0  0  0  0  0  0  0  0  0  0  0  0
  145.0791  151.6563  132.5973 H   0  0  0  0  0  0  0  0  0  0  0  0
  145.8291  153.2885  132.5973 H   0  0  0  0  0  0  0  0  0  0  0  0
  143.0974  156.4806  134.5542 H   0  0  0  0  0  0  0  0  0  0  0  0
  139.8818  158.7294  135.2653 H   0  0  0  0  0  0  0  0  0  0  0  0
  140.7497  160.1108  134.4409 H   0  0  0  0  0  0  0  0  0  0  0  0
  1  2  1  0
  2  3  1  0
  3  4  1  0
  4  5  1  0
  5  6  1  0
  6  7  1  0
  7  8  1  0
  8  9  1  0
  9 10  1  0
 10 11  2  0
 11 12  1  0
 12 13  2  0
 13 14  1  0
 14 15  2  0
 15 16  1  0
 16 17  1  0
 16 18  2  0
 15 19  1  0
 19 20  1  0
 20 21  2  0
 20 22  1  0
 22 23  1  0
 23 24  1  0
 23 25  1  0
 23 26  1  0
 19 27  1  0
 27 28  2  0
  8 29  1  0
 29  4  1  0
 28 10  1  0
 27 13  1  0
  1 30  1  0
  1 31  1  0
  1 32  1  0
  2 33  1  0
  2 34  1  0
  3 35  1  0
  3 36  1  0
  5 37  1  0
  5 38  1  0
  6 39  1  0
  6 40  1  0
  7 41  1  0
  7 42  1  0
  8 43  1  1
  9 44  1  0
  9 45  1  0
 11 46  1  0
 12 47  1  0
 14 48  1  0
 17 49  1  0
 24 50  1  0
 24 51  1  0
 24 52  1  0
 25 53  1  0
 25 54  1  0
 25 55  1  0
 26 56  1  0
 26 57  1  0
 26 58  1  0
 28 59  1  0
 29 60  1  0
 29 61  1  0
M  CHG  1  17  -1
M  END
>  <UniqueID>  (39) 
39

>  <SMILES>  (39) 
CCCN1CCC[C@@H](Cc2ccc3cc(C([NH-])=O)n(C(=O)OC(C)(C)C)c3c2)C1

>  <Energy>  (39) 
98.48846042946536

>  <Genealogy>  (39) 
CCCN1CCC[C@@H](Cc2ccc3cc(C([NH-])=O)n(C(=O)OC(C)(C)C)c3c2)C1 (protonated)
CCCN1CCC[C@@H](Cc2ccc3cc(C([NH-])=O)n(C(=O)OC(C)(C)C)c3c2)C1 (3D coordinates assigned)
CCCN1CCC[C@@H](Cc2ccc3cc(C([NH-])=O)n(C(=O)OC(C)(C)C)c3c2)C1 (nonaromatic ring conformer: 98.48846042946536 kcal/mol)

>  <smiles>  (39) 
CCCN1CCC[C@@H](Cc2ccc3cc(C(N)=O)n(C(=O)OC(C)(C)C)c3c2)C1

>  <score_type>  (39) 
oracle

>  <origin>  (39) 
adg

>  <m_score__min__energy>  (39) 
-8.9900000000000002

>  <m_primary>  (39) 
energy

$$$$
39:0
     RDKit          3D

 39 41  0  0  0  0  0  0  0  0999 V2000
  149.9970  150.5330  131.3940 C   0  0  0  0  0  0  0  0  0  0  0  0
  149.3460  151.0270  132.6090 N   0  0  0  0  0  0  0  0  0  0  0  0
  149.2370  150.1570  133.7520 C   0  0  0  0  0  0  0  0  0  0  0  0
  148.4360  149.1850  133.7450 O   0  0  0  0  0  0  0  0  0  0  0  0
  149.9990  150.3940  134.8910 O   0  0  0  0  0  0  0  0  0  0  0  0
  148.9580  152.4130  132.6980 C   0  0  0  0  0  0  0  0  0  0  0  0
  147.6300  152.7630  132.9900 C   0  0  0  0  0  0  0  0  0  0  0  0
  147.2560  154.1060  133.0850 C   0  0  0  0  0  0  0  0  0  0  0  0
  148.2030  155.1270  132.8950 C   0  0  0  0  0  0  0  0  0  0  0  0
  147.8070  156.5540  132.9960 C   0  0  0  0  0  0  0  0  0  0  0  0
  148.7790  157.5800  132.8680 C   0  0  0  0  0  0  0  0  0  0  0  0
  148.4160  158.9330  132.9750 C   0  0  0  0  0  0  0  0  0  0  0  0
  147.0770  159.2330  133.2010 C   0  0  0  0  0  0  0  0  0  0  0  0
  146.4610  160.4510  133.3710 C   0  0  0  0  0  0  0  0  0  0  0  0
  145.1140  160.1590  133.5790 C   0  0  0  0  0  0  0  0  0  0  0  0
  144.0700  161.1950  133.7320 C   0  0  0  0  0  0  0  0  0  0  0  0
  142.7130  160.8840  133.4260 N   0  0  0  0  0  0  0  0  0  0  0  0
  144.3580  162.3420  134.1630 O   0  0  0  0  0  0  0  0  0  0  0  0
  144.9070  158.8120  133.5430 N   0  0  0  0  0  0  0  0  0  0  0  0
  143.6770  158.1040  133.7660 C   0  0  0  0  0  0  0  0  0  0  0  0
  142.6360  158.1460  132.7930 N   0  0  0  0  0  0  0  0  0  0  0  0
  143.5150  157.4320  134.8200 O   0  0  0  0  0  0  0  0  0  0  0  0
  146.1190  158.2600  133.3080 C   0  0  0  0  0  0  0  0  0  0  0  0
  146.4540  156.9030  133.2260 C   0  0  0  0  0  0  0  0  0  0  0  0
  149.5340  154.7730  132.6090 C   0  0  0  0  0  0  0  0  0  0  0  0
  149.9070  153.4300  132.5140 C   0  0  0  0  0  0  0  0  0  0  0  0
  150.8455  149.8891  131.6686 H   0  0  0  0  0  0  0  0  0  0  0  0
  149.2743  149.9539  130.8003 H   0  0  0  0  0  0  0  0  0  0  0  0
  150.3602  151.3849  130.8003 H   0  0  0  0  0  0  0  0  0  0  0  0
  146.8788  151.9745  133.1451 H   0  0  0  0  0  0  0  0  0  0  0  0
  146.2113  154.3664  133.3105 H   0  0  0  0  0  0  0  0  0  0  0  0
  149.8298  157.3126  132.6827 H   0  0  0  0  0  0  0  0  0  0  0  0
  149.1679  159.7306  132.8829 H   0  0  0  0  0  0  0  0  0  0  0  0
  146.9317  161.4450  133.3477 H   0  0  0  0  0  0  0  0  0  0  0  0
  142.4690  160.3040  132.5920 H   0  0  0  0  0  0  0  0  0  0  0  0
  142.4060  159.0330  132.2920 H   0  0  0  0  0  0  0  0  0  0  0  0
  145.6837  156.1257  133.3377 H   0  0  0  0  0  0  0  0  0  0  0  0
  150.2875  155.5602  132.4589 H   0  0  0  0  0  0  0  0  0  0  0  0
  150.9523  153.1679  132.2934 H   0  0  0  0  0  0  0  0  0  0  0  0
  1  2  1  0
  2  3  1  0
  3  4  2  0
  3  5  1  0
  2  6  1  0
  6  7  2  0
  7  8  1  0
  8  9  2  0
  9 10  1  0
 10 11  2  0
 11 12  1  0
 12 13  2  0
 13 14  1  0
 14 15  2  0
 15 16  1  0
 16 17  1  0
 16 18  2  0
 15 19  1  0
 19 20  1  0
 20 21  1  0
 20 22  2  0
 19 23  1  0
 23 24  2  0
  9 25  1  0
 25 26  2  0
 26  6  1  0
 24 10  1  0
 23 13  1  0
  1 27  1  0
  1 28  1  0
  1 29  1  0
  7 30  1  0
  8 31  1  0
 11 32  1  0
 12 33  1  0
 14 34  1  0
 17 35  1  0
 21 36  1  0
 24 37  1  0
 25 38  1  0
 26 39  1  0
M  CHG  3   5  -1  17  -1  21  -1
M  END
>  <UniqueID>  (40) 
40

>  <SMILES>  (40) 
CN(C(=O)[O-])c1ccc(-c2ccc3cc(C([NH-])=O)n(C([NH-])=O)c3c2)cc1

>  <Energy>  (40) 
90.51351564934782

>  <Genealogy>  (40) 
CN(C(=O)[O-])c1ccc(-c2ccc3cc(C([NH-])=O)n(C([NH-])=O)c3c2)cc1 (protonated)
CN(C(=O)[O-])c1ccc(-c2ccc3cc(C([NH-])=O)n(C([NH-])=O)c3c2)cc1 (3D coordinates assigned)
CN(C(=O)[O-])c1ccc(-c2ccc3cc(C([NH-])=O)n(C([NH-])=O)c3c2)cc1 (optimized conformer: 90.51351564934782 kcal/mol)

>  <smiles>  (40) 
CN(C(=O)O)c1ccc(-c2ccc3cc(C(N)=O)n(C(N)=O)c3c2)cc1

>  <score_type>  (40) 
oracle

>  <origin>  (40) 
adg

>  <m_score__min__energy>  (40) 
-7.9800000000000004

>  <m_primary>  (40) 
energy

$$$$
40:0
     RDKit          3D

 27 28  0  0  0  0  0  0  0  0999 V2000
  147.7470  157.3100  131.8720 N   0  0  0  0  0  0  0  0  0  0  0  0
  147.4490  158.3110  132.8470 C   0  0  0  0  0  0  0  0  0  0  0  0
  148.3920  158.8670  133.4700 O   0  0  0  0  0  0  0  0  0  0  0  0
  146.0540  158.6580  133.1840 C   0  0  0  0  0  0  0  0  0  0  0  0
  145.5620  159.9590  133.1570 C   0  0  0  0  0  0  0  0  0  0  0  0
  144.2600  159.8640  133.5890 C   0  0  0  0  0  0  0  0  0  0  0  0
  143.2920  160.8550  133.7360 C   0  0  0  0  0  0  0  0  0  0  0  0
  142.0120  160.4680  134.1590 C   0  0  0  0  0  0  0  0  0  0  0  0
  141.7200  159.1060  134.4230 C   0  0  0  0  0  0  0  0  0  0  0  0
  140.3310  158.6990  134.8290 C   0  0  0  0  0  0  0  0  0  0  0  0
  140.2360  158.6100  136.3190 C   0  0  0  0  0  0  0  0  0  0  0  0
  139.5150  157.7310  136.8560 O   0  0  0  0  0  0  0  0  0  0  0  0
  140.9850  159.4690  137.1150 O   0  0  0  0  0  0  0  0  0  0  0  0
  142.7230  158.1260  134.2510 C   0  0  0  0  0  0  0  0  0  0  0  0
  143.9980  158.5420  133.8500 C   0  0  0  0  0  0  0  0  0  0  0  0
  145.0920  157.7870  133.6020 N   0  0  0  0  0  0  0  0  0  0  0  0
  145.1740  156.3510  133.6510 C   0  0  0  0  0  0  0  0  0  0  0  0
  145.4990  155.6970  132.6250 O   0  0  0  0  0  0  0  0  0  0  0  0
  144.8940  155.6710  134.8290 O   0  0  0  0  0  0  0  0  0  0  0  0
  146.9940  156.7140  131.4640 H   0  0  0  0  0  0  0  0  0  0  0  0
  148.7390  157.1050  131.6200 H   0  0  0  0  0  0  0  0  0  0  0  0
  146.0999  160.8696  132.8545 H   0  0  0  0  0  0  0  0  0  0  0  0
  143.5246  161.9095  133.5266 H   0  0  0  0  0  0  0  0  0  0  0  0
  141.2274  161.2283  134.2871 H   0  0  0  0  0  0  0  0  0  0  0  0
  139.6114  159.4459  134.4626 H   0  0  0  0  0  0  0  0  0  0  0  0
  140.1029  157.7146  134.3944 H   0  0  0  0  0  0  0  0  0  0  0  0
  142.5073  157.0620  134.4279 H   0  0  0  0  0  0  0  0  0  0  0  0
  1  2  1  0
  2  3  2  0
  2  4  1  0
  4  5  2  0
  5  6  1  0
  6  7  2  0
  7  8  1  0
  8  9  2  0
  9 10  1  0
 10 11  1  0
 11 12  2  0
 11 13  1  0
  9 14  1  0
 14 15  2  0
 15 16  1  0
 16 17  1  0
 17 18  2  0
 17 19  1  0
 16  4  1  0
 15  6  1  0
  1 20  1  0
  1 21  1  0
  5 22  1  0
  7 23  1  0
  8 24  1  0
 10 25  1  0
 10 26  1  0
 14 27  1  0
M  CHG  2  13  -1  19  -1
M  END
>  <UniqueID>  (41) 
41

>  <SMILES>  (41) 
NC(=O)c1cc2ccc(CC(=O)[O-])cc2n1C(=O)[O-]

>  <Energy>  (41) 
65.97960821558077

>  <Genealogy>  (41) 
NC(=O)c1cc2ccc(CC(=O)[O-])cc2n1C(=O)[O-] (protonated)
NC(=O)c1cc2ccc(CC(=O)[O-])cc2n1C(=O)[O-] (3D coordinates assigned)
NC(=O)c1cc2ccc(CC(=O)[O-])cc2n1C(=O)[O-] (optimized conformer: 65.97960821558077 kcal/mol)

>  <smiles>  (41) 
NC(=O)c1cc2ccc(CC(=O)O)cc2n1C(=O)O

>  <score_type>  (41) 
oracle

>  <origin>  (41) 
adg

>  <m_score__min__energy>  (41) 
-6.5800000000000001

>  <m_primary>  (41) 
energy

$$$$
41:0
     RDKit          3D

 48 50  0  0  0  0  0  0  0  0999 V2000
  143.6630  158.5010  134.2880 C   0  0  0  0  0  0  0  0  0  0  0  0
  144.8450  158.7100  133.3960 C   0  0  0  0  0  0  0  0  0  0  0  0
  144.8710  159.7160  132.6380 O   0  0  0  0  0  0  0  0  0  0  0  0
  145.9440  157.7850  133.3930 N   0  0  0  0  0  0  0  0  0  0  0  0
  147.2700  158.0820  133.2880 C   0  0  0  0  0  0  0  0  0  0  0  0
  147.8410  159.4490  133.2770 C   0  0  0  0  0  0  0  0  0  0  0  0
  147.2880  160.4670  132.4400 N   0  0  0  0  0  0  0  0  0  0  0  0
  148.8390  159.7230  133.9940 O   0  0  0  0  0  0  0  0  0  0  0  0
  148.0300  156.9130  133.2640 C   0  0  0  0  0  0  0  0  0  0  0  0
  147.1220  155.8840  133.3530 C   0  0  0  0  0  0  0  0  0  0  0  0
  147.3260  154.5060  133.3540 C   0  0  0  0  0  0  0  0  0  0  0  0
  146.1970  153.6730  133.4210 C   0  0  0  0  0  0  0  0  0  0  0  0
  144.8980  154.2310  133.4750 C   0  0  0  0  0  0  0  0  0  0  0  0
  143.7490  153.3660  133.5280 C   0  0  0  0  0  0  0  0  0  0  0  0
  142.7870  152.6420  133.5710 C   0  0  0  0  0  0  0  0  0  0  0  0
  141.6160  151.7600  133.6190 C   0  0  0  0  0  0  0  0  0  0  0  0
  141.1670  151.3900  132.2000 C   0  0  0  0  0  0  0  0  0  0  0  0
  141.3190  149.9140  131.9100 C   0  0  0  0  0  0  0  0  0  0  0  0
  142.3650  149.3170  132.2850 O   0  0  0  0  0  0  0  0  0  0  0  0
  140.3160  149.1880  131.1630 N   0  0  0  0  0  0  0  0  0  0  0  0
  140.2270  147.7280  131.3120 C   0  0  0  0  0  0  0  0  0  0  0  0
  139.5870  147.1010  130.0710 C   0  0  0  0  0  0  0  0  0  0  0  0
  138.3690  147.7430  129.7550 O   0  0  0  0  0  0  0  0  0  0  0  0
  138.6260  149.0780  129.3690 C   0  0  0  0  0  0  0  0  0  0  0  0
  139.1820  149.8890  130.5430 C   0  0  0  0  0  0  0  0  0  0  0  0
  144.7250  155.6290  133.4710 C   0  0  0  0  0  0  0  0  0  0  0  0
  145.8690  156.4360  133.4260 C   0  0  0  0  0  0  0  0  0  0  0  0
  143.9823  158.5575  135.3391 H   0  0  0  0  0  0  0  0  0  0  0  0
  142.9122  159.2803  134.0905 H   0  0  0  0  0  0  0  0  0  0  0  0
  143.2250  157.5115  134.0905 H   0  0  0  0  0  0  0  0  0  0  0  0
  147.7240  161.4160  132.4140 H   0  0  0  0  0  0  0  0  0  0  0  0
  146.4230  160.3030  131.8790 H   0  0  0  0  0  0  0  0  0  0  0  0
  149.1244  156.8312  133.1896 H   0  0  0  0  0  0  0  0  0  0  0  0
  148.3402  154.0831  133.3039 H   0  0  0  0  0  0  0  0  0  0  0  0
  146.3236  152.5804  133.4316 H   0  0  0  0  0  0  0  0  0  0  0  0
  141.8754  150.8427  134.1679 H   0  0  0  0  0  0  0  0  0  0  0  0
  140.7942  152.2852  134.1278 H   0  0  0  0  0  0  0  0  0  0  0  0
  140.1086  151.6653  132.0820 H   0  0  0  0  0  0  0  0  0  0  0  0
  141.8088  151.9368  131.4936 H   0  0  0  0  0  0  0  0  0  0  0  0
  141.2379  147.3154  131.4457 H   0  0  0  0  0  0  0  0  0  0  0  0
  139.6043  147.4970  132.1889 H   0  0  0  0  0  0  0  0  0  0  0  0
  140.2776  147.1995  129.2205 H   0  0  0  0  0  0  0  0  0  0  0  0
  139.3826  146.0402  130.2780 H   0  0  0  0  0  0  0  0  0  0  0  0
  139.3599  149.0810  128.5496 H   0  0  0  0  0  0  0  0  0  0  0  0
  137.6817  149.5369  129.0408 H   0  0  0  0  0  0  0  0  0  0  0  0
  139.5192  150.8702  130.1775 H   0  0  0  0  0  0  0  0  0  0  0  0
  138.3888  150.0160  131.2945 H   0  0  0  0  0  0  0  0  0  0  0  0
  143.7197  156.0744  133.5023 H   0  0  0  0  0  0  0  0  0  0  0  0
  1  2  1  0
  2  3  2  0
  2  4  1  0
  4  5  1  0
  5  6  1  0
  6  7  1  0
  6  8  2  0
  5  9  2  0
  9 10  1  0
 10 11  2  0
 11 12  1  0
 12 13  2  0
 13 14  1  0
 14 15  3  0
 15 16  1  0
 16 17  1  0
 17 18  1  0
 18 19  2  0
 18 20  1  0
 20 21  1  0
 21 22  1  0
 22 23  1  0
 23 24  1  0
 24 25  1  0
 13 26  1  0
 26 27  2  0
 27  4  1  0
 27 10  1  0
 25 20  1  0
  1 28  1  0
  1 29  1  0
  1 30  1  0
  7 31  1  0
  7 32  1  0
  9 33  1  0
 11 34  1  0
 12 35  1  0
 16 36  1  0
 16 37  1  0
 17 38  1  0
 17 39  1  0
 21 40  1  0
 21 41  1  0
 22 42  1  0
 22 43  1  0
 24 44  1  0
 24 45  1  0
 25 46  1  0
 25 47  1  0
 26 48  1  0
M  END
>  <UniqueID>  (42) 
42

>  <SMILES>  (42) 
CC(=O)n1c(C(N)=O)cc2ccc(C#CCCC(=O)N3CCOCC3)cc21

>  <Energy>  (42) 
83.365249943697

>  <Genealogy>  (42) 
CC(=O)n1c(C(N)=O)cc2ccc(C#CCCC(=O)N3CCOCC3)cc21 (3D coordinates assigned)
CC(=O)n1c(C(N)=O)cc2ccc(C#CCCC(=O)N3CCOCC3)cc21 (nonaromatic ring conformer: 83.365249943697 kcal/mol)

>  <smiles>  (42) 
CC(=O)n1c(C(N)=O)cc2ccc(C#CCCC(=O)N3CCOCC3)cc21

>  <score_type>  (42) 
oracle

>  <origin>  (42) 
adg

>  <m_score__min__energy>  (42) 
-8.8599999999999994

>  <m_primary>  (42) 
energy

$$$$
42:0
     RDKit          3D

 39 41  0  0  0  0  0  0  0  0999 V2000
  143.6580  154.8890  132.9880 C   0  0  0  0  0  0  0  0  0  0  0  0
  144.5070  154.6240  134.2270 C   0  0  0  0  0  0  0  0  0  0  0  0
  145.4740  155.6570  134.4030 O   0  0  0  0  0  0  0  0  0  0  0  0
  145.9840  156.4250  133.3500 C   0  0  0  0  0  0  0  0  0  0  0  0
  146.5260  155.8650  132.3590 O   0  0  0  0  0  0  0  0  0  0  0  0
  145.8950  157.8580  133.4050 N   0  0  0  0  0  0  0  0  0  0  0  0
  146.8810  158.7600  133.1340 C   0  0  0  0  0  0  0  0  0  0  0  0
  148.3030  158.4290  132.8840 C   0  0  0  0  0  0  0  0  0  0  0  0
  148.6670  157.5090  131.8540 N   0  0  0  0  0  0  0  0  0  0  0  0
  149.2100  158.9820  133.5600 O   0  0  0  0  0  0  0  0  0  0  0  0
  146.3900  160.0620  133.2180 C   0  0  0  0  0  0  0  0  0  0  0  0
  145.0610  159.9280  133.5520 C   0  0  0  0  0  0  0  0  0  0  0  0
  144.0910  160.9030  133.7610 C   0  0  0  0  0  0  0  0  0  0  0  0
  142.7880  160.4780  134.0720 C   0  0  0  0  0  0  0  0  0  0  0  0
  142.4790  159.0980  134.1490 C   0  0  0  0  0  0  0  0  0  0  0  0
  141.0830  158.6560  134.5100 C   0  0  0  0  0  0  0  0  0  0  0  0
  140.6550  158.7490  135.9840 C   0  0  0  0  0  0  0  0  0  0  0  0
  141.5690  158.0740  136.7710 F   0  0  0  0  0  0  0  0  0  0  0  0
  139.4000  158.2040  136.1980 F   0  0  0  0  0  0  0  0  0  0  0  0
  140.6290  160.0780  136.3690 F   0  0  0  0  0  0  0  0  0  0  0  0
  140.5270  157.4920  133.6930 C   0  0  0  0  0  0  0  0  0  0  0  0
  140.0130  158.9060  133.4510 C   0  0  0  0  0  0  0  0  0  0  0  0
  143.4950  158.1380  133.9490 C   0  0  0  0  0  0  0  0  0  0  0  0
  144.7870  158.5890  133.6580 C   0  0  0  0  0  0  0  0  0  0  0  0
  142.6497  155.2038  133.2949 H   0  0  0  0  0  0  0  0  0  0  0  0
  144.1236  155.6845  132.3877 H   0  0  0  0  0  0  0  0  0  0  0  0
  143.5884  153.9699  132.3877 H   0  0  0  0  0  0  0  0  0  0  0  0
  143.8539  154.5856  135.1113 H   0  0  0  0  0  0  0  0  0  0  0  0
  145.0313  153.6654  134.0993 H   0  0  0  0  0  0  0  0  0  0  0  0
  147.9430  156.9900  131.3090 H   0  0  0  0  0  0  0  0  0  0  0  0
  149.6740  157.3120  131.6610 H   0  0  0  0  0  0  0  0  0  0  0  0
  146.9457  160.9968  133.0527 H   0  0  0  0  0  0  0  0  0  0  0  0
  144.3361  161.9727  133.6852 H   0  0  0  0  0  0  0  0  0  0  0  0
  142.0010  161.2239  134.2573 H   0  0  0  0  0  0  0  0  0  0  0  0
  141.1574  156.9993  132.9381 H   0  0  0  0  0  0  0  0  0  0  0  0
  140.0603  156.5256  133.9341 H   0  0  0  0  0  0  0  0  0  0  0  0
  140.2723  159.4336  132.5213 H   0  0  0  0  0  0  0  0  0  0  0  0
  139.0215  159.3823  133.4451 H   0  0  0  0  0  0  0  0  0  0  0  0
  143.2761  157.0624  134.0202 H   0  0  0  0  0  0  0  0  0  0  0  0
  1  2  1  0
  2  3  1  0
  3  4  1  0
  4  5  2  0
  4  6  1  0
  6  7  1  0
  7  8  1  0
  8  9  1  0
  8 10  2  0
  7 11  2  0
 11 12  1  0
 12 13  2  0
 13 14  1  0
 14 15  2  0
 15 16  1  0
 16 17  1  0
 17 18  1  0
 17 19  1  0
 17 20  1  0
 16 21  1  0
 21 22  1  0
 15 23  1  0
 23 24  2  0
 24  6  1  0
 24 12  1  0
 22 16  1  0
  1 25  1  0
  1 26  1  0
  1 27  1  0
  2 28  1  0
  2 29  1  0
  9 30  1  0
  9 31  1  0
 11 32  1  0
 13 33  1  0
 14 34  1  0
 21 35  1  0
 21 36  1  0
 22 37  1  0
 22 38  1  0
 23 39  1  0
M  END
>  <UniqueID>  (43) 
43

>  <SMILES>  (43) 
CCOC(=O)n1c(C(N)=O)cc2ccc(C3(C(F)(F)F)CC3)cc21

>  <Energy>  (43) 
340.6443407929462

>  <Genealogy>  (43) 
CCOC(=O)n1c(C(N)=O)cc2ccc(C3(C(F)(F)F)CC3)cc21 (3D coordinates assigned)
CCOC(=O)n1c(C(N)=O)cc2ccc(C3(C(F)(F)F)CC3)cc21 (nonaromatic ring conformer: 340.6443407929462 kcal/mol)

>  <smiles>  (43) 
CCOC(=O)n1c(C(N)=O)cc2ccc(C3(C(F)(F)F)CC3)cc21

>  <score_type>  (43) 
oracle

>  <origin>  (43) 
adg

>  <m_score__min__energy>  (43) 
-6.7199999999999998

>  <m_primary>  (43) 
energy

$$$$
43:0
     RDKit          3D

 27 28  0  0  0  0  0  0  0  0999 V2000
  149.3390  160.5080  130.9350 C   0  0  0  0  0  0  0  0  0  0  0  0
  149.3780  159.7390  132.2520 C   0  0  0  0  0  0  0  0  0  0  0  0
  147.9910  159.3270  132.6680 C   0  0  0  0  0  0  0  0  0  0  0  0
  147.6110  157.9630  132.6210 C   0  0  0  0  0  0  0  0  0  0  0  0
  146.3140  157.5690  132.9900 C   0  0  0  0  0  0  0  0  0  0  0  0
  145.4170  158.5600  133.3800 C   0  0  0  0  0  0  0  0  0  0  0  0
  144.1140  158.4550  133.8050 C   0  0  0  0  0  0  0  0  0  0  0  0
  143.7040  159.7600  134.0690 C   0  0  0  0  0  0  0  0  0  0  0  0
  142.3270  160.1110  134.4710 C   0  0  0  0  0  0  0  0  0  0  0  0
  141.5230  160.9730  133.6680 N   0  0  0  0  0  0  0  0  0  0  0  0
  141.8330  159.6040  135.5140 O   0  0  0  0  0  0  0  0  0  0  0  0
  144.7190  160.6380  133.8250 N   0  0  0  0  0  0  0  0  0  0  0  0
  144.7310  162.0570  134.0510 C   0  0  0  0  0  0  0  0  0  0  0  0
  145.5770  162.5700  134.8300 O   0  0  0  0  0  0  0  0  0  0  0  0
  143.8260  162.8800  133.3940 O   0  0  0  0  0  0  0  0  0  0  0  0
  145.7600  159.8880  133.4020 C   0  0  0  0  0  0  0  0  0  0  0  0
  147.0510  160.3060  133.0590 C   0  0  0  0  0  0  0  0  0  0  0  0
  149.2843  161.5870  131.1419 H   0  0  0  0  0  0  0  0  0  0  0  0
  150.2493  160.2912  130.3567 H   0  0  0  0  0  0  0  0  0  0  0  0
  148.4553  160.2003  130.3567 H   0  0  0  0  0  0  0  0  0  0  0  0
  149.9997  158.8401  132.1272 H   0  0  0  0  0  0  0  0  0  0  0  0
  149.8020  160.3908  133.0301 H   0  0  0  0  0  0  0  0  0  0  0  0
  148.3380  157.2056  132.2926 H   0  0  0  0  0  0  0  0  0  0  0  0
  146.0162  156.5102  132.9714 H   0  0  0  0  0  0  0  0  0  0  0  0
  143.5206  157.5352  133.9136 H   0  0  0  0  0  0  0  0  0  0  0  0
  141.8890  161.8920  133.3350 H   0  0  0  0  0  0  0  0  0  0  0  0
  147.3266  161.3704  133.0931 H   0  0  0  0  0  0  0  0  0  0  0  0
  1  2  1  0
  2  3  1  0
  3  4  2  0
  4  5  1  0
  5  6  2  0
  6  7  1  0
  7  8  2  0
  8  9  1  0
  9 10  1  0
  9 11  2  0
  8 12  1  0
 12 13  1  0
 13 14  2  0
 13 15  1  0
 12 16  1  0
 16 17  2  0
 17  3  1  0
 16  6  1  0
  1 18  1  0
  1 19  1  0
  1 20  1  0
  2 21  1  0
  2 22  1  0
  4 23  1  0
  5 24  1  0
  7 25  1  0
 10 26  1  0
 17 27  1  0
M  CHG  2  10  -1  15  -1
M  END
>  <UniqueID>  (44) 
44

>  <SMILES>  (44) 
CCc1ccc2cc(C([NH-])=O)n(C(=O)[O-])c2c1

>  <Energy>  (44) 
64.01229430620285

>  <Genealogy>  (44) 
CCc1ccc2cc(C([NH-])=O)n(C(=O)[O-])c2c1 (protonated)
CCc1ccc2cc(C([NH-])=O)n(C(=O)[O-])c2c1 (3D coordinates assigned)
CCc1ccc2cc(C([NH-])=O)n(C(=O)[O-])c2c1 (optimized conformer: 64.01229430620285 kcal/mol)

>  <smiles>  (44) 
CCc1ccc2cc(C(N)=O)n(C(=O)O)c2c1

>  <score_type>  (44) 
oracle

>  <origin>  (44) 
adg

>  <m_score__min__energy>  (44) 
-6.2400000000000002

>  <m_primary>  (44) 
energy

$$$$
44:0
     RDKit          3D

 54 56  0  0  0  0  0  0  0  0999 V2000
  146.0800  155.2720  135.0450 C   0  0  0  0  0  0  0  0  0  0  0  0
  145.4850  155.7680  133.8490 O   0  0  0  0  0  0  0  0  0  0  0  0
  146.1880  156.5210  132.9070 C   0  0  0  0  0  0  0  0  0  0  0  0
  146.6100  155.9560  131.8630 O   0  0  0  0  0  0  0  0  0  0  0  0
  146.3980  157.9430  133.1090 N   0  0  0  0  0  0  0  0  0  0  0  0
  147.5500  158.6510  132.8890 C   0  0  0  0  0  0  0  0  0  0  0  0
  148.8730  158.0940  132.5450 C   0  0  0  0  0  0  0  0  0  0  0  0
  149.1120  156.6890  132.6100 N   0  0  0  0  0  0  0  0  0  0  0  0
  149.8260  158.8760  132.2770 O   0  0  0  0  0  0  0  0  0  0  0  0
  147.3430  160.0150  133.0570 C   0  0  0  0  0  0  0  0  0  0  0  0
  146.0270  160.1390  133.4220 C   0  0  0  0  0  0  0  0  0  0  0  0
  145.3030  161.2850  133.7340 C   0  0  0  0  0  0  0  0  0  0  0  0
  143.9530  161.1370  134.0830 C   0  0  0  0  0  0  0  0  0  0  0  0
  143.3570  159.8560  134.1260 C   0  0  0  0  0  0  0  0  0  0  0  0
  141.8990  159.7210  134.4630 C   0  0  0  0  0  0  0  0  0  0  0  0
  141.0290  160.0670  133.2440 C   0  0  0  0  0  0  0  0  0  0  0  0
  140.1010  158.9120  132.8480 C   0  0  1  0  0  0  0  0  0  0  0  0
  139.1910  158.6350  133.9560 N   0  0  0  0  0  0  0  0  0  0  0  0
  139.4850  157.8010  135.0840 C   0  0  0  0  0  0  0  0  0  0  0  0
  138.8040  157.9280  136.1360 O   0  0  0  0  0  0  0  0  0  0  0  0
  140.5630  156.7910  135.0370 C   0  0  0  0  0  0  0  0  0  0  0  0
  140.5740  155.8100  134.0150 C   0  0  0  0  0  0  0  0  0  0  0  0
  139.5040  155.7630  132.9500 C   0  0  0  0  0  0  0  0  0  0  0  0
  141.6240  154.8850  133.9610 C   0  0  0  0  0  0  0  0  0  0  0  0
  142.6320  154.9270  134.9210 C   0  0  0  0  0  0  0  0  0  0  0  0
  142.5960  155.8560  135.9070 N   0  0  0  0  0  0  0  0  0  0  0  0
  141.6060  156.7830  136.0000 C   0  0  0  0  0  0  0  0  0  0  0  0
  141.6510  157.7240  137.1690 C   0  0  0  0  0  0  0  0  0  0  0  0
  139.3150  159.2460  131.6110 C   0  0  0  0  0  0  0  0  0  0  0  0
  138.8240  158.3270  130.9050 O   0  0  0  0  0  0  0  0  0  0  0  0
  139.1100  160.5710  131.2490 O   0  0  0  0  0  0  0  0  0  0  0  0
  144.1210  158.7110  133.7970 C   0  0  0  0  0  0  0  0  0  0  0  0
  145.4700  158.8800  133.4470 C   0  0  0  0  0  0  0  0  0  0  0  0
  145.5645  155.7017  135.9165 H   0  0  0  0  0  0  0  0  0  0  0  0
  145.9923  154.1758  135.0709 H   0  0  0  0  0  0  0  0  0  0  0  0
  147.1425  155.5556  135.0709 H   0  0  0  0  0  0  0  0  0  0  0  0
  148.7700  156.0510  131.8510 H   0  0  0  0  0  0  0  0  0  0  0  0
  148.0780  160.8227  132.9253 H   0  0  0  0  0  0  0  0  0  0  0  0
  145.7755  162.2780  133.7077 H   0  0  0  0  0  0  0  0  0  0  0  0
  143.3522  162.0260  134.3255 H   0  0  0  0  0  0  0  0  0  0  0  0
  141.6935  158.6854  134.7718 H   0  0  0  0  0  0  0  0  0  0  0  0
  141.6576  160.4163  135.2805 H   0  0  0  0  0  0  0  0  0  0  0  0
  140.4155  160.9476  133.4851 H   0  0  0  0  0  0  0  0  0  0  0  0
  141.7003  160.2668  132.3958 H   0  0  0  0  0  0  0  0  0  0  0  0
  140.7123  158.0242  132.6288 H   0  0  0  0  0  0  0  0  0  0  0  0
  138.5137  155.7195  133.4269 H   0  0  0  0  0  0  0  0  0  0  0  0
  139.5701  156.6649  132.3238 H   0  0  0  0  0  0  0  0  0  0  0  0
  139.6489  154.8704  132.3238 H   0  0  0  0  0  0  0  0  0  0  0  0
  141.6525  154.1281  133.1633 H   0  0  0  0  0  0  0  0  0  0  0  0
  143.4599  154.2039  134.8788 H   0  0  0  0  0  0  0  0  0  0  0  0
  141.6234  157.1472  138.1053 H   0  0  0  0  0  0  0  0  0  0  0  0
  142.5784  158.3142  137.1291 H   0  0  0  0  0  0  0  0  0  0  0  0
  140.7842  158.4000  137.1291 H   0  0  0  0  0  0  0  0  0  0  0  0
  143.6671  157.7092  133.8151 H   0  0  0  0  0  0  0  0  0  0  0  0
  1  2  1  0
  2  3  1  0
  3  4  2  0
  3  5  1  0
  5  6  1  0
  6  7  1  0
  7  8  1  0
  7  9  2  0
  6 10  2  0
 10 11  1  0
 11 12  2  0
 12 13  1  0
 13 14  2  0
 14 15  1  0
 15 16  1  0
 16 17  1  0
 17 18  1  0
 18 19  1  0
 19 20  2  0
 19 21  1  0
 21 22  2  0
 22 23  1  0
 22 24  1  0
 24 25  2  0
 25 26  1  0
 26 27  2  0
 27 28  1  0
 17 29  1  0
 29 30  2  0
 29 31  1  0
 14 32  1  0
 32 33  2  0
 33  5  1  0
 33 11  1  0
 27 21  1  0
  1 34  1  0
  1 35  1  0
  1 36  1  0
  8 37  1  0
 10 38  1  0
 12 39  1  0
 13 40  1  0
 15 41  1  0
 15 42  1  0
 16 43  1  0
 16 44  1  0
 17 45  1  6
 23 46  1  0
 23 47  1  0
 23 48  1  0
 24 49  1  0
 25 50  1  0
 28 51  1  0
 28 52  1  0
 28 53  1  0
 32 54  1  0
M  CHG  3   8  -1  18  -1  31  -1
M  END
>  <UniqueID>  (45) 
45

>  <SMILES>  (45) 
COC(=O)n1c(C([NH-])=O)cc2ccc(CC[C@@H]([N-]C(=O)c3c(C)ccnc3C)C(=O)[O-])cc21

>  <Energy>  (45) 
99.28950476970024

>  <Genealogy>  (45) 
COC(=O)n1c(C([NH-])=O)cc2ccc(CCC([N-]C(=O)c3c(C)ccnc3C)C(=O)[O-])cc21 (protonated)
COC(=O)n1c(C([NH-])=O)cc2ccc(CC[C@@H]([N-]C(=O)c3c(C)ccnc3C)C(=O)[O-])cc21 (chirality)
COC(=O)n1c(C([NH-])=O)cc2ccc(CC[C@@H]([N-]C(=O)c3c(C)ccnc3C)C(=O)[O-])cc21 (3D coordinates assigned)
COC(=O)n1c(C([NH-])=O)cc2ccc(CC[C@@H]([N-]C(=O)c3c(C)ccnc3C)C(=O)[O-])cc21 (optimized conformer: 99.28950476970024 kcal/mol)

>  <smiles>  (45) 
COC(=O)n1c(C(N)=O)cc2ccc(CCC(NC(=O)c3c(C)ccnc3C)C(=O)O)cc21

>  <score_type>  (45) 
oracle

>  <origin>  (45) 
adg

>  <m_score__min__energy>  (45) 
-8.4700000000000006

>  <m_primary>  (45) 
energy

$$$$
45:0
     RDKit          3D

 46 48  0  0  0  0  0  0  0  0999 V2000
  144.5660  154.8650  131.9180 C   0  0  0  0  0  0  0  0  0  0  0  0
  145.4270  155.0060  133.1300 C   0  0  0  0  0  0  0  0  0  0  0  0
  145.0850  154.4350  134.1980 O   0  0  0  0  0  0  0  0  0  0  0  0
  146.6380  155.7760  133.0880 N   0  0  0  0  0  0  0  0  0  0  0  0
  147.9060  155.3080  132.9140 C   0  0  0  0  0  0  0  0  0  0  0  0
  148.2880  153.8780  132.8540 C   0  0  0  0  0  0  0  0  0  0  0  0
  147.4820  152.8760  133.4780 N   0  0  0  0  0  0  0  0  0  0  0  0
  149.3260  153.5270  132.2330 O   0  0  0  0  0  0  0  0  0  0  0  0
  148.8130  156.3690  132.8720 C   0  0  0  0  0  0  0  0  0  0  0  0
  148.0520  157.5060  133.0180 C   0  0  0  0  0  0  0  0  0  0  0  0
  148.4330  158.8440  133.0270 C   0  0  0  0  0  0  0  0  0  0  0  0
  147.4280  159.8160  133.1600 C   0  0  0  0  0  0  0  0  0  0  0  0
  146.0610  159.4370  133.2810 C   0  0  0  0  0  0  0  0  0  0  0  0
  145.0080  160.4140  133.4080 N   0  0  0  0  0  0  0  0  0  0  0  0
  143.8050  160.2400  134.2210 C   0  0  0  0  0  0  0  0  0  0  0  0
  142.6440  159.7080  133.3550 C   0  0  0  0  0  0  0  0  0  0  0  0
  141.6120  158.9590  134.1070 N   0  0  0  0  0  0  0  0  0  0  0  0
  140.2840  158.9620  133.4740 C   0  0  0  0  0  0  0  0  0  0  0  0
  139.3660  157.9580  134.2030 C   0  0  0  0  0  0  0  0  0  0  0  0
  139.8680  157.5700  135.4740 O   0  0  0  0  0  0  0  0  0  0  0  0
  140.3000  158.7030  136.2000 C   0  0  0  0  0  0  0  0  0  0  0  0
  141.5370  159.3340  135.5320 C   0  0  0  0  0  0  0  0  0  0  0  0
  145.7200  158.0670  133.2630 C   0  0  0  0  0  0  0  0  0  0  0  0
  146.7440  157.1210  133.1440 C   0  0  0  0  0  0  0  0  0  0  0  0
  143.5240  154.6944  132.2263 H   0  0  0  0  0  0  0  0  0  0  0  0
  144.6248  155.7847  131.3175 H   0  0  0  0  0  0  0  0  0  0  0  0
  144.9150  154.0121  131.3175 H   0  0  0  0  0  0  0  0  0  0  0  0
  146.6540  153.1240  134.0600 H   0  0  0  0  0  0  0  0  0  0  0  0
  147.7370  151.8670  133.3820 H   0  0  0  0  0  0  0  0  0  0  0  0
  149.9044  156.3086  132.7484 H   0  0  0  0  0  0  0  0  0  0  0  0
  149.4904  159.1322  132.9327 H   0  0  0  0  0  0  0  0  0  0  0  0
  147.7000  160.8818  133.1708 H   0  0  0  0  0  0  0  0  0  0  0  0
  145.1200  161.3290  132.9160 H   0  0  0  0  0  0  0  0  0  0  0  0
  144.0135  159.5225  135.0283 H   0  0  0  0  0  0  0  0  0  0  0  0
  143.5171  161.2130  134.6457 H   0  0  0  0  0  0  0  0  0  0  0  0
  142.1586  160.5656  132.8663 H   0  0  0  0  0  0  0  0  0  0  0  0
  143.0861  158.9995  132.6391 H   0  0  0  0  0  0  0  0  0  0  0  0
  139.8491  159.9704  133.5383 H   0  0  0  0  0  0  0  0  0  0  0  0
  140.3801  158.6716  132.4174 H   0  0  0  0  0  0  0  0  0  0  0  0
  138.3789  158.4229  134.3428 H   0  0  0  0  0  0  0  0  0  0  0  0
  139.3085  157.0525  133.5811 H   0  0  0  0  0  0  0  0  0  0  0  0
  139.4878  159.4442  136.2308 H   0  0  0  0  0  0  0  0  0  0  0  0
  140.5677  158.3904  137.2201 H   0  0  0  0  0  0  0  0  0  0  0  0
  141.4717  160.4290  135.6137 H   0  0  0  0  0  0  0  0  0  0  0  0
  142.4394  158.9649  136.0415 H   0  0  0  0  0  0  0  0  0  0  0  0
  144.6697  157.7496  133.3410 H   0  0  0  0  0  0  0  0  0  0  0  0
  1  2  1  0
  2  3  2  0
  2  4  1  0
  4  5  1  0
  5  6  1  0
  6  7  1  0
  6  8  2  0
  5  9  2  0
  9 10  1  0
 10 11  2  0
 11 12  1  0
 12 13  2  0
 13 14  1  0
 14 15  1  0
 15 16  1  0
 16 17  1  0
 17 18  1  0
 18 19  1  0
 19 20  1  0
 20 21  1  0
 21 22  1  0
 13 23  1  0
 23 24  2  0
 24  4  1  0
 24 10  1  0
 22 17  1  0
  1 25  1  0
  1 26  1  0
  1 27  1  0
  7 28  1  0
  7 29  1  0
  9 30  1  0
 11 31  1  0
 12 32  1  0
 14 33  1  0
 15 34  1  0
 15 35  1  0
 16 36  1  0
 16 37  1  0
 18 38  1  0
 18 39  1  0
 19 40  1  0
 19 41  1  0
 21 42  1  0
 21 43  1  0
 22 44  1  0
 22 45  1  0
 23 46  1  0
M  END
>  <UniqueID>  (46) 
46

>  <SMILES>  (46) 
CC(=O)n1c(C(N)=O)cc2ccc(NCCN3CCOCC3)cc21

>  <Energy>  (46) 
96.13725933432227

>  <Genealogy>  (46) 
CC(=O)n1c(C(N)=O)cc2ccc(NCCN3CCOCC3)cc21 (3D coordinates assigned)
CC(=O)n1c(C(N)=O)cc2ccc(NCCN3CCOCC3)cc21 (nonaromatic ring conformer: 96.13725933432227 kcal/mol)

>  <smiles>  (46) 
CC(=O)n1c(C(N)=O)cc2ccc(NCCN3CCOCC3)cc21

>  <score_type>  (46) 
oracle

>  <origin>  (46) 
adg

>  <m_score__min__energy>  (46) 
-7.75

>  <m_primary>  (46) 
energy

$$$$
46:0
     RDKit          3D

 46 48  0  0  0  0  0  0  0  0999 V2000
  140.6190  159.2940  137.1640 C   0  0  0  0  0  0  0  0  0  0  0  0
  140.2320  158.0480  136.4790 N   0  0  0  0  0  0  0  0  0  0  0  0
  141.3110  157.0260  136.5390 C   0  0  0  0  0  0  0  0  0  0  0  0
  142.0800  156.8520  135.2160 C   0  0  0  0  0  0  0  0  0  0  0  0
  142.1290  158.1220  134.4850 N   0  0  0  0  0  0  0  0  0  0  0  0
  143.3830  158.7130  134.0950 C   0  0  0  0  0  0  0  0  0  0  0  0
  143.5470  160.1210  134.1170 C   0  0  0  0  0  0  0  0  0  0  0  0
  144.7660  160.7080  133.7410 C   0  0  0  0  0  0  0  0  0  0  0  0
  145.8080  159.8660  133.3620 C   0  0  0  0  0  0  0  0  0  0  0  0
  147.0800  160.1680  132.9330 C   0  0  0  0  0  0  0  0  0  0  0  0
  147.6870  158.9390  132.6870 C   0  0  0  0  0  0  0  0  0  0  0  0
  149.1010  158.7960  132.2810 C   0  0  0  0  0  0  0  0  0  0  0  0
  149.6610  157.4980  132.1050 N   0  0  0  0  0  0  0  0  0  0  0  0
  149.8120  159.8110  132.0540 O   0  0  0  0  0  0  0  0  0  0  0  0
  146.8230  157.9170  132.9480 N   0  0  0  0  0  0  0  0  0  0  0  0
  147.0390  156.5120  132.7490 C   0  0  0  0  0  0  0  0  0  0  0  0
  146.9830  156.0250  131.5870 O   0  0  0  0  0  0  0  0  0  0  0  0
  147.3310  155.6930  133.8470 O   0  0  0  0  0  0  0  0  0  0  0  0
  147.3880  154.2700  133.7720 C   0  0  0  0  0  0  0  0  0  0  0  0
  148.7780  153.8010  133.3390 C   0  0  0  0  0  0  0  0  0  0  0  0
  149.2410  154.5650  132.2580 O   0  0  0  0  0  0  0  0  0  0  0  0
  145.6770  158.5020  133.3610 C   0  0  0  0  0  0  0  0  0  0  0  0
  144.4680  157.8900  133.7120 C   0  0  0  0  0  0  0  0  0  0  0  0
  140.8660  158.8050  134.1830 C   0  0  0  0  0  0  0  0  0  0  0  0
  139.7430  158.3040  135.1070 C   0  0  0  0  0  0  0  0  0  0  0  0
  140.5723  159.1436  138.2527 H   0  0  0  0  0  0  0  0  0  0  0  0
  141.6445  159.5678  136.8753 H   0  0  0  0  0  0  0  0  0  0  0  0
  139.9291  160.1006  136.8753 H   0  0  0  0  0  0  0  0  0  0  0  0
  142.0270  157.3237  137.3192 H   0  0  0  0  0  0  0  0  0  0  0  0
  140.8265  156.0625  136.7558 H   0  0  0  0  0  0  0  0  0  0  0  0
  143.1055  156.5187  135.4335 H   0  0  0  0  0  0  0  0  0  0  0  0
  141.5634  156.1030  134.5978 H   0  0  0  0  0  0  0  0  0  0  0  0
  142.7097  160.7610  134.4322 H   0  0  0  0  0  0  0  0  0  0  0  0
  144.8938  161.8005  133.7458 H   0  0  0  0  0  0  0  0  0  0  0  0
  147.5231  161.1673  132.8104 H   0  0  0  0  0  0  0  0  0  0  0  0
  149.0580  156.6820  131.8530 H   0  0  0  0  0  0  0  0  0  0  0  0
  147.1575  153.8478  134.7612 H   0  0  0  0  0  0  0  0  0  0  0  0
  146.6541  153.9278  133.0275 H   0  0  0  0  0  0  0  0  0  0  0  0
  149.4753  153.9086  134.1830 H   0  0  0  0  0  0  0  0  0  0  0  0
  148.7167  152.7474  133.0288 H   0  0  0  0  0  0  0  0  0  0  0  0
  148.9240  155.4930  132.4100 H   0  0  0  0  0  0  0  0  0  0  0  0
  144.3641  156.7951  133.6905 H   0  0  0  0  0  0  0  0  0  0  0  0
  140.9971  159.8875  134.3281 H   0  0  0  0  0  0  0  0  0  0  0  0
  140.5884  158.5907  133.1404 H   0  0  0  0  0  0  0  0  0  0  0  0
  138.9500  159.0652  135.1482 H   0  0  0  0  0  0  0  0  0  0  0  0
  139.3618  157.3566  134.6982 H   0  0  0  0  0  0  0  0  0  0  0  0
  1  2  1  0
  2  3  1  0
  3  4  1  0
  4  5  1  0
  5  6  1  0
  6  7  2  0
  7  8  1  0
  8  9  2  0
  9 10  1  0
 10 11  2  0
 11 12  1  0
 12 13  1  0
 12 14  2  0
 11 15  1  0
 15 16  1  0
 16 17  2  0
 16 18  1  0
 18 19  1  0
 19 20  1  0
 20 21  1  0
 15 22  1  0
 22 23  2  0
  5 24  1  0
 24 25  1  0
 25  2  1  0
 23  6  1  0
 22  9  1  0
  1 26  1  0
  1 27  1  0
  1 28  1  0
  3 29  1  0
  3 30  1  0
  4 31  1  0
  4 32  1  0
  7 33  1  0
  8 34  1  0
 10 35  1  0
 13 36  1  0
 19 37  1  0
 19 38  1  0
 20 39  1  0
 20 40  1  0
 21 41  1  0
 23 42  1  0
 24 43  1  0
 24 44  1  0
 25 45  1  0
 25 46  1  0
M  CHG  1  13  -1
M  END
>  <UniqueID>  (47) 
47

>  <SMILES>  (47) 
CN1CCN(c2ccc3cc(C([NH-])=O)n(C(=O)OCCO)c3c2)CC1

>  <Energy>  (47) 
93.32887739691705

>  <Genealogy>  (47) 
CN1CCN(c2ccc3cc(C([NH-])=O)n(C(=O)OCCO)c3c2)CC1 (protonated)
CN1CCN(c2ccc3cc(C([NH-])=O)n(C(=O)OCCO)c3c2)CC1 (3D coordinates assigned)
CN1CCN(c2ccc3cc(C([NH-])=O)n(C(=O)OCCO)c3c2)CC1 (nonaromatic ring conformer: 93.32887739691705 kcal/mol)

>  <smiles>  (47) 
CN1CCN(c2ccc3cc(C(N)=O)n(C(=O)OCCO)c3c2)CC1

>  <score_type>  (47) 
oracle

>  <origin>  (47) 
adg

>  <m_score__min__energy>  (47) 
-6.4100000000000001

>  <m_primary>  (47) 
energy

$$$$
47:0
     RDKit          3D

 47 48  0  0  0  0  0  0  0  0999 V2000
  148.5390  157.1370  132.6170 C   0  0  0  0  0  0  0  0  0  0  0  0
  149.1970  158.5150  132.6190 C   0  0  0  0  0  0  0  0  0  0  0  0
  148.7490  159.3310  131.4650 N   0  0  0  0  0  0  0  0  0  0  0  0
  149.9300  159.7660  130.6800 C   0  0  0  0  0  0  0  0  0  0  0  0
  149.6280  161.0000  129.8290 C   0  0  0  0  0  0  0  0  0  0  0  0
  147.9190  160.4870  131.9030 C   0  0  0  0  0  0  0  0  0  0  0  0
  147.2970  160.2120  133.2790 C   0  0  0  0  0  0  0  0  0  0  0  0
  145.8550  160.4670  133.2700 N   0  0  0  0  0  0  0  0  0  0  0  0
  144.8410  159.4610  133.4590 C   0  0  0  0  0  0  0  0  0  0  0  0
  143.6160  159.8340  134.0680 C   0  0  0  0  0  0  0  0  0  0  0  0
  142.5830  158.8980  134.2460 C   0  0  0  0  0  0  0  0  0  0  0  0
  142.8040  157.5950  133.8150 C   0  0  0  0  0  0  0  0  0  0  0  0
  141.9670  156.5030  133.8350 C   0  0  0  0  0  0  0  0  0  0  0  0
  142.6980  155.4660  133.2570 C   0  0  0  0  0  0  0  0  0  0  0  0
  142.2080  154.0740  133.1230 C   0  0  0  0  0  0  0  0  0  0  0  0
  142.4060  153.3420  131.9110 N   0  0  0  0  0  0  0  0  0  0  0  0
  141.5920  153.5260  134.0750 O   0  0  0  0  0  0  0  0  0  0  0  0
  143.9410  155.9000  132.9030 N   0  0  0  0  0  0  0  0  0  0  0  0
  144.9650  155.1470  132.2320 C   0  0  0  0  0  0  0  0  0  0  0  0
  146.2450  154.8010  132.9210 C   0  0  0  0  0  0  0  0  0  0  0  0
  144.7860  154.7680  131.0430 O   0  0  0  0  0  0  0  0  0  0  0  0
  143.9880  157.2060  133.2460 C   0  0  0  0  0  0  0  0  0  0  0  0
  145.0260  158.1210  133.0380 C   0  0  0  0  0  0  0  0  0  0  0  0
  148.3804  156.8049  133.6536 H   0  0  0  0  0  0  0  0  0  0  0  0
  147.5708  157.1937  132.0980 H   0  0  0  0  0  0  0  0  0  0  0  0
  149.1918  156.4197  132.0980 H   0  0  0  0  0  0  0  0  0  0  0  0
  148.9319  159.0367  133.5504 H   0  0  0  0  0  0  0  0  0  0  0  0
  150.2859  158.3784  132.5440 H   0  0  0  0  0  0  0  0  0  0  0  0
  150.7495  160.0048  131.3738 H   0  0  0  0  0  0  0  0  0  0  0  0
  150.2092  158.9456  130.0025 H   0  0  0  0  0  0  0  0  0  0  0  0
  149.4184  161.8565  130.4866 H   0  0  0  0  0  0  0  0  0  0  0  0
  150.4966  161.2291  129.1941 H   0  0  0  0  0  0  0  0  0  0  0  0
  148.7518  160.8021  129.1941 H   0  0  0  0  0  0  0  0  0  0  0  0
  148.5522  161.3843  131.9649 H   0  0  0  0  0  0  0  0  0  0  0  0
  147.1115  160.6421  131.1723 H   0  0  0  0  0  0  0  0  0  0  0  0
  147.4735  159.1603  133.5486 H   0  0  0  0  0  0  0  0  0  0  0  0
  147.7646  160.8848  134.0129 H   0  0  0  0  0  0  0  0  0  0  0  0
  145.5530  161.4610  133.1510 H   0  0  0  0  0  0  0  0  0  0  0  0
  143.4722  160.8709  134.4059 H   0  0  0  0  0  0  0  0  0  0  0  0
  141.6294  159.1873  134.7118 H   0  0  0  0  0  0  0  0  0  0  0  0
  140.9392  156.4578  134.2244 H   0  0  0  0  0  0  0  0  0  0  0  0
  142.0230  152.3750  131.8190 H   0  0  0  0  0  0  0  0  0  0  0  0
  142.9670  153.7310  131.1230 H   0  0  0  0  0  0  0  0  0  0  0  0
  146.0974  154.8409  134.0103 H   0  0  0  0  0  0  0  0  0  0  0  0
  146.5555  153.7867  132.6299 H   0  0  0  0  0  0  0  0  0  0  0  0
  147.0243  155.5207  132.6299 H   0  0  0  0  0  0  0  0  0  0  0  0
  145.9647  157.8069  132.5583 H   0  0  0  0  0  0  0  0  0  0  0  0
  1  2  1  0
  2  3  1  0
  3  4  1  0
  4  5  1  0
  3  6  1  0
  6  7  1  0
  7  8  1  0
  8  9  1  0
  9 10  2  0
 10 11  1  0
 11 12  2  0
 12 13  1  0
 13 14  2  0
 14 15  1  0
 15 16  1  0
 15 17  2  0
 14 18  1  0
 18 19  1  0
 19 20  1  0
 19 21  2  0
 18 22  1  0
 22 23  2  0
 23  9  1  0
 22 12  1  0
  1 24  1  0
  1 25  1  0
  1 26  1  0
  2 27  1  0
  2 28  1  0
  4 29  1  0
  4 30  1  0
  5 31  1  0
  5 32  1  0
  5 33  1  0
  6 34  1  0
  6 35  1  0
  7 36  1  0
  7 37  1  0
  8 38  1  0
 10 39  1  0
 11 40  1  0
 13 41  1  0
 16 42  1  0
 16 43  1  0
 20 44  1  0
 20 45  1  0
 20 46  1  0
 23 47  1  0
M  END
>  <UniqueID>  (48) 
48

>  <SMILES>  (48) 
CCN(CC)CCNc1ccc2cc(C(N)=O)n(C(C)=O)c2c1

>  <Energy>  (48) 
81.89026874727733

>  <Genealogy>  (48) 
CCN(CC)CCNc1ccc2cc(C(N)=O)n(C(C)=O)c2c1 (3D coordinates assigned)
CCN(CC)CCNc1ccc2cc(C(N)=O)n(C(C)=O)c2c1 (optimized conformer: 81.89026874727733 kcal/mol)

>  <smiles>  (48) 
CCN(CC)CCNc1ccc2cc(C(N)=O)n(C(C)=O)c2c1

>  <score_type>  (48) 
oracle

>  <origin>  (48) 
adg

>  <m_score__min__energy>  (48) 
-7.1200000000000001

>  <m_primary>  (48) 
energy

$$$$
48:0
     RDKit          3D

 57 60  0  0  0  0  0  0  0  0999 V2000
  138.3530  158.2080  133.3500 C   0  0  0  0  0  0  0  0  0  0  0  0
  139.7400  157.6030  133.0810 C   0  0  2  0  0  0  0  0  0  0  0  0
  140.2890  156.8250  134.2920 C   0  0  0  0  0  0  0  0  0  0  0  0
  140.8810  157.7030  135.4290 C   0  0  2  0  0  0  0  0  0  0  0  0
  140.0540  157.5680  136.7160 C   0  0  0  0  0  0  0  0  0  0  0  0
  141.0470  159.1950  135.0650 C   0  0  0  0  0  0  0  0  0  0  0  0
  141.5300  159.4390  133.6240 C   0  0  1  0  0  0  0  0  0  0  0  0
  142.9800  159.2240  133.5260 N   0  0  0  0  0  0  0  0  0  0  0  0
  143.6280  158.0870  133.2190 C   0  0  0  0  0  0  0  0  0  0  0  0
  144.9770  158.3610  133.3420 C   0  0  0  0  0  0  0  0  0  0  0  0
  146.1110  157.4300  133.1370 C   0  0  0  0  0  0  0  0  0  0  0  0
  147.4410  157.9250  133.1350 C   0  0  0  0  0  0  0  0  0  0  0  0
  148.5340  157.0530  132.9850 C   0  0  0  0  0  0  0  0  0  0  0  0
  148.2700  155.6970  132.8260 C   0  0  0  0  0  0  0  0  0  0  0  0
  149.1360  154.6310  132.7260 C   0  0  0  0  0  0  0  0  0  0  0  0
  148.3230  153.5040  132.6320 C   0  0  0  0  0  0  0  0  0  0  0  0
  148.8440  152.1300  132.4850 C   0  0  0  0  0  0  0  0  0  0  0  0
  148.0920  150.9990  132.9290 N   0  0  0  0  0  0  0  0  0  0  0  0
  149.9510  151.9470  131.9140 O   0  0  0  0  0  0  0  0  0  0  0  0
  147.0080  153.8580  132.6770 N   0  0  0  0  0  0  0  0  0  0  0  0
  145.8710  152.9860  132.7490 C   0  0  0  0  0  0  0  0  0  0  0  0
  145.7210  152.0760  131.8890 O   0  0  0  0  0  0  0  0  0  0  0  0
  144.9310  153.1590  133.7730 O   0  0  0  0  0  0  0  0  0  0  0  0
  143.7340  153.9250  133.6310 C   0  0  0  0  0  0  0  0  0  0  0  0
  142.4880  153.0660  133.8880 C   0  0  0  0  0  0  0  0  0  0  0  0
  141.0540  153.7320  133.0630 Cl  0  0  0  0  0  0  0  0  0  0  0  0
  142.7680  151.4170  133.2720 Cl  0  0  0  0  0  0  0  0  0  0  0  0
  142.1540  152.9660  135.6370 Cl  0  0  0  0  0  0  0  0  0  0  0  0
  146.9930  155.2030  132.7980 C   0  0  0  0  0  0  0  0  0  0  0  0
  145.8880  156.0430  132.9670 C   0  0  0  0  0  0  0  0  0  0  0  0
  145.1050  159.6480  133.7270 N   0  0  0  0  0  0  0  0  0  0  0  0
  143.8820  160.1430  133.8350 N   0  0  0  0  0  0  0  0  0  0  0  0
  140.7560  158.6350  132.5430 C   0  0  0  0  0  0  0  0  0  0  0  0
  138.1885  158.2797  134.4353 H   0  0  0  0  0  0  0  0  0  0  0  0
  138.2980  159.2119  132.9036 H   0  0  0  0  0  0  0  0  0  0  0  0
  137.5798  157.5654  132.9036 H   0  0  0  0  0  0  0  0  0  0  0  0
  139.5931  156.8701  132.2740 H   0  0  0  0  0  0  0  0  0  0  0  0
  139.4667  156.2293  134.7151 H   0  0  0  0  0  0  0  0  0  0  0  0
  141.1221  156.2158  133.9114 H   0  0  0  0  0  0  0  0  0  0  0  0
  141.8963  157.3118  135.5908 H   0  0  0  0  0  0  0  0  0  0  0  0
  140.7143  157.6758  137.5891 H   0  0  0  0  0  0  0  0  0  0  0  0
  139.2830  158.3522  136.7404 H   0  0  0  0  0  0  0  0  0  0  0  0
  139.5724  156.5793  136.7404 H   0  0  0  0  0  0  0  0  0  0  0  0
  140.0741  159.6922  135.1924 H   0  0  0  0  0  0  0  0  0  0  0  0
  141.8213  159.6008  135.7327 H   0  0  0  0  0  0  0  0  0  0  0  0
  141.3057  160.4926  133.4014 H   0  0  0  0  0  0  0  0  0  0  0  0
  143.1743  157.1282  132.9275 H   0  0  0  0  0  0  0  0  0  0  0  0
  147.6191  159.0041  133.2522 H   0  0  0  0  0  0  0  0  0  0  0  0
  149.5666  157.4321  132.9932 H   0  0  0  0  0  0  0  0  0  0  0  0
  150.2355  154.6628  132.7213 H   0  0  0  0  0  0  0  0  0  0  0  0
  147.1000  151.0970  133.2390 H   0  0  0  0  0  0  0  0  0  0  0  0
  148.5010  150.0410  132.8630 H   0  0  0  0  0  0  0  0  0  0  0  0
  143.7520  154.7550  134.3527 H   0  0  0  0  0  0  0  0  0  0  0  0
  143.6861  154.3063  132.6003 H   0  0  0  0  0  0  0  0  0  0  0  0
  144.8668  155.6342  132.9678 H   0  0  0  0  0  0  0  0  0  0  0  0
  140.2090  159.3527  131.9140 H   0  0  0  0  0  0  0  0  0  0  0  0
  141.5149  158.0550  131.9974 H   0  0  0  0  0  0  0  0  0  0  0  0
  1  2  1  0
  2  3  1  0
  3  4  1  0
  4  5  1  0
  4  6  1  0
  6  7  1  0
  7  8  1  0
  8  9  1  0
  9 10  2  0
 10 11  1  0
 11 12  2  0
 12 13  1  0
 13 14  2  0
 14 15  1  0
 15 16  2  0
 16 17  1  0
 17 18  1  0
 17 19  2  0
 16 20  1  0
 20 21  1  0
 21 22  2  0
 21 23  1  0
 23 24  1  0
 24 25  1  0
 25 26  1  0
 25 27  1  0
 25 28  1  0
 20 29  1  0
 29 30  2  0
 10 31  1  0
 31 32  2  0
  7 33  1  0
 33  2  1  0
 32  8  1  0
 30 11  1  0
 29 14  1  0
  1 34  1  0
  1 35  1  0
  1 36  1  0
  2 37  1  6
  3 38  1  0
  3 39  1  0
  4 40  1  1
  5 41  1  0
  5 42  1  0
  5 43  1  0
  6 44  1  0
  6 45  1  0
  7 46  1  6
  9 47  1  0
 12 48  1  0
 13 49  1  0
 15 50  1  0
 18 51  1  0
 18 52  1  0
 24 53  1  0
 24 54  1  0
 30 55  1  0
 33 56  1  0
 33 57  1  0
M  END
>  <UniqueID>  (49) 
49

>  <SMILES>  (49) 
C[C@@H]1CC(n2cc(-c3ccc4cc(C(N)=O)n(C(=O)OCC(Cl)(Cl)Cl)c4c3)nn2)C[C@H](C)C1

>  <Energy>  (49) 
137.15764152377628

>  <Genealogy>  (49) 
C[C@@H]1CC(n2cc(-c3ccc4cc(C(N)=O)n(C(=O)OCC(Cl)(Cl)Cl)c4c3)nn2)C[C@H](C)C1 (chirality)
C[C@@H]1CC(n2cc(-c3ccc4cc(C(N)=O)n(C(=O)OCC(Cl)(Cl)Cl)c4c3)nn2)C[C@H](C)C1 (3D coordinates assigned)
C[C@@H]1CC(n2cc(-c3ccc4cc(C(N)=O)n(C(=O)OCC(Cl)(Cl)Cl)c4c3)nn2)C[C@H](C)C1 (nonaromatic ring conformer: 137.15764152377628 kcal/mol)

>  <smiles>  (49) 
CC1CC(C)CC(n2cc(-c3ccc4cc(C(N)=O)n(C(=O)OCC(Cl)(Cl)Cl)c4c3)nn2)C1

>  <score_type>  (49) 
oracle

>  <origin>  (49) 
adg

>  <m_score__min__energy>  (49) 
-10.69

>  <m_primary>  (49) 
energy

$$$$
49:0
     RDKit          3D

 45 47  0  0  0  0  0  0  0  0999 V2000
  141.3080  160.1230  133.5520 C   0  0  0  0  0  0  0  0  0  0  0  0
  140.4610  159.0720  132.9520 N   0  0  0  0  0  0  0  0  0  0  0  0
  139.8310  159.6230  131.7340 C   0  0  0  0  0  0  0  0  0  0  0  0
  139.4310  158.5850  133.9220 C   0  0  0  0  0  0  0  0  0  0  0  0
  138.5960  157.4260  133.3620 C   0  0  0  0  0  0  0  0  0  0  0  0
  139.4670  156.2300  132.9600 C   0  0  0  0  0  0  0  0  0  0  0  0
  140.6060  155.9470  133.8680 N   0  0  0  0  0  0  0  0  0  0  0  0
  141.4410  154.7740  133.5990 C   0  0  0  0  0  0  0  0  0  0  0  0
  142.8680  154.8680  133.5970 C   0  0  0  0  0  0  0  0  0  0  0  0
  143.6750  153.7520  133.3280 C   0  0  0  0  0  0  0  0  0  0  0  0
  143.0520  152.5400  133.0680 C   0  0  0  0  0  0  0  0  0  0  0  0
  143.5990  151.3220  132.7420 C   0  0  0  0  0  0  0  0  0  0  0  0
  142.5130  150.4690  132.5680 C   0  0  0  0  0  0  0  0  0  0  0  0
  142.6510  149.0320  132.2600 C   0  0  0  0  0  0  0  0  0  0  0  0
  141.5700  148.1220  132.4730 N   0  0  0  0  0  0  0  0  0  0  0  0
  143.7580  148.5890  131.8560 O   0  0  0  0  0  0  0  0  0  0  0  0
  141.3410  151.1360  132.7660 N   0  0  0  0  0  0  0  0  0  0  0  0
  140.0080  150.6340  132.5700 C   0  0  0  0  0  0  0  0  0  0  0  0
  139.2400  151.1800  131.7330 O   0  0  0  0  0  0  0  0  0  0  0  0
  139.5520  149.5430  133.2970 O   0  0  0  0  0  0  0  0  0  0  0  0
  141.6920  152.4060  133.0740 C   0  0  0  0  0  0  0  0  0  0  0  0
  140.8580  153.5050  133.3140 C   0  0  0  0  0  0  0  0  0  0  0  0
  141.0210  156.8820  134.9430 C   0  0  0  0  0  0  0  0  0  0  0  0
  140.0510  158.0380  135.2140 C   0  0  0  0  0  0  0  0  0  0  0  0
  141.2539  160.0559  134.6486 H   0  0  0  0  0  0  0  0  0  0  0  0
  142.3497  159.9843  133.2271 H   0  0  0  0  0  0  0  0  0  0  0  0
  140.9511  161.1115  133.2271 H   0  0  0  0  0  0  0  0  0  0  0  0
  139.0313  160.3224  132.0191 H   0  0  0  0  0  0  0  0  0  0  0  0
  140.5877  160.1544  131.1381 H   0  0  0  0  0  0  0  0  0  0  0  0
  139.4051  158.8023  131.1381 H   0  0  0  0  0  0  0  0  0  0  0  0
  138.8117  159.4734  134.1151 H   0  0  0  0  0  0  0  0  0  0  0  0
  137.8798  157.1008  134.1309 H   0  0  0  0  0  0  0  0  0  0  0  0
  138.0777  157.7860  132.4610 H   0  0  0  0  0  0  0  0  0  0  0  0
  138.8258  155.3367  132.9291 H   0  0  0  0  0  0  0  0  0  0  0  0
  139.9085  156.4865  131.9857 H   0  0  0  0  0  0  0  0  0  0  0  0
  143.3435  155.8365  133.8111 H   0  0  0  0  0  0  0  0  0  0  0  0
  144.7718  153.8359  133.3234 H   0  0  0  0  0  0  0  0  0  0  0  0
  144.6660  151.0745  132.6404 H   0  0  0  0  0  0  0  0  0  0  0  0
  141.6730  147.1170  132.2140 H   0  0  0  0  0  0  0  0  0  0  0  0
  140.7010  148.4240  132.9670 H   0  0  0  0  0  0  0  0  0  0  0  0
  139.7645  153.3901  133.2829 H   0  0  0  0  0  0  0  0  0  0  0  0
  141.1301  156.3044  135.8728 H   0  0  0  0  0  0  0  0  0  0  0  0
  141.9583  157.3444  134.5999 H   0  0  0  0  0  0  0  0  0  0  0  0
  139.2446  157.6781  135.8699 H   0  0  0  0  0  0  0  0  0  0  0  0
  140.6180  158.8521  135.6891 H   0  0  0  0  0  0  0  0  0  0  0  0
  1  2  1  0
  2  3  1  0
  2  4  1  0
  4  5  1  0
  5  6  1  0
  6  7  1  0
  7  8  1  0
  8  9  2  0
  9 10  1  0
 10 11  2  0
 11 12  1  0
 12 13  2  0
 13 14  1  0
 14 15  1  0
 14 16  2  0
 13 17  1  0
 17 18  1  0
 18 19  2  0
 18 20  1  0
 17 21  1  0
 21 22  2  0
  7 23  1  0
 23 24  1  0
 24  4  1  0
 22  8  1  0
 21 11  1  0
  1 25  1  0
  1 26  1  0
  1 27  1  0
  3 28  1  0
  3 29  1  0
  3 30  1  0
  4 31  1  0
  5 32  1  0
  5 33  1  0
  6 34  1  0
  6 35  1  0
  9 36  1  0
 10 37  1  0
 12 38  1  0
 15 39  1  0
 15 40  1  0
 22 41  1  0
 23 42  1  0
 23 43  1  0
 24 44  1  0
 24 45  1  0
M  CHG  1  20  -1
M  END
>  <UniqueID>  (50) 
50

>  <SMILES>  (50) 
CN(C)C1CCN(c2ccc3cc(C(N)=O)n(C(=O)[O-])c3c2)CC1

>  <Energy>  (50) 
98.44372665392478

>  <Genealogy>  (50) 
CN(C)C1CCN(c2ccc3cc(C(N)=O)n(C(=O)[O-])c3c2)CC1 (protonated)
CN(C)C1CCN(c2ccc3cc(C(N)=O)n(C(=O)[O-])c3c2)CC1 (3D coordinates assigned)
CN(C)C1CCN(c2ccc3cc(C(N)=O)n(C(=O)[O-])c3c2)CC1 (nonaromatic ring conformer: 98.44372665392478 kcal/mol)

>  <smiles>  (50) 
CN(C)C1CCN(c2ccc3cc(C(N)=O)n(C(=O)O)c3c2)CC1

>  <score_type>  (50) 
oracle

>  <origin>  (50) 
adg

>  <m_score__min__energy>  (50) 
-7.5999999999999996

>  <m_primary>  (50) 
energy

$$$$
50:0
     RDKit          3D

 32 33  0  0  0  0  0  0  0  0999 V2000
  149.2290  161.6300  130.3620 C   0  0  0  0  0  0  0  0  0  0  0  0
  148.7420  160.3130  130.4890 O   0  0  0  0  0  0  0  0  0  0  0  0
  149.7430  159.4960  131.0590 C   0  0  0  0  0  0  0  0  0  0  0  0
  149.4880  159.3710  132.5590 C   0  0  0  0  0  0  0  0  0  0  0  0
  148.0540  158.9980  132.8280 C   0  0  0  0  0  0  0  0  0  0  0  0
  147.6400  157.6470  132.7220 C   0  0  0  0  0  0  0  0  0  0  0  0
  146.3100  157.2850  132.9880 C   0  0  0  0  0  0  0  0  0  0  0  0
  145.4250  158.2880  133.3770 C   0  0  0  0  0  0  0  0  0  0  0  0
  144.0820  158.2160  133.6640 C   0  0  0  0  0  0  0  0  0  0  0  0
  143.7070  159.5170  133.9850 C   0  0  0  0  0  0  0  0  0  0  0  0
  142.3440  159.8840  134.4200 C   0  0  0  0  0  0  0  0  0  0  0  0
  141.5960  160.8920  133.7390 N   0  0  0  0  0  0  0  0  0  0  0  0
  141.8530  159.3380  135.4440 O   0  0  0  0  0  0  0  0  0  0  0  0
  144.7690  160.3660  133.8880 N   0  0  0  0  0  0  0  0  0  0  0  0
  144.7610  161.7970  134.0270 C   0  0  0  0  0  0  0  0  0  0  0  0
  143.8960  162.4890  133.4280 O   0  0  0  0  0  0  0  0  0  0  0  0
  145.7070  162.4330  134.8220 O   0  0  0  0  0  0  0  0  0  0  0  0
  145.8170  159.5950  133.5150 C   0  0  0  0  0  0  0  0  0  0  0  0
  147.1310  159.9870  133.2340 C   0  0  0  0  0  0  0  0  0  0  0  0
  149.3881  162.0601  131.3618 H   0  0  0  0  0  0  0  0  0  0  0  0
  150.1819  161.6172  129.8125 H   0  0  0  0  0  0  0  0  0  0  0  0
  148.4971  162.2402  129.8125 H   0  0  0  0  0  0  0  0  0  0  0  0
  149.7134  158.4989  130.5955 H   0  0  0  0  0  0  0  0  0  0  0  0
  150.7322  159.9451  130.8863 H   0  0  0  0  0  0  0  0  0  0  0  0
  150.1467  158.5936  132.9733 H   0  0  0  0  0  0  0  0  0  0  0  0
  149.6952  160.3412  133.0341 H   0  0  0  0  0  0  0  0  0  0  0  0
  148.3670  156.8753  132.4288 H   0  0  0  0  0  0  0  0  0  0  0  0
  145.9768  156.2411  132.8922 H   0  0  0  0  0  0  0  0  0  0  0  0
  143.4416  157.3218  133.6441 H   0  0  0  0  0  0  0  0  0  0  0  0
  142.0360  161.4800  132.9980 H   0  0  0  0  0  0  0  0  0  0  0  0
  140.6190  161.1110  134.0370 H   0  0  0  0  0  0  0  0  0  0  0  0
  147.4372  161.0394  133.3271 H   0  0  0  0  0  0  0  0  0  0  0  0
  1  2  1  0
  2  3  1  0
  3  4  1  0
  4  5  1  0
  5  6  2  0
  6  7  1  0
  7  8  2  0
  8  9  1  0
  9 10  2  0
 10 11  1  0
 11 12  1  0
 11 13  2  0
 10 14  1  0
 14 15  1  0
 15 16  2  0
 15 17  1  0
 14 18  1  0
 18 19  2  0
 19  5  1  0
 18  8  1  0
  1 20  1  0
  1 21  1  0
  1 22  1  0
  3 23  1  0
  3 24  1  0
  4 25  1  0
  4 26  1  0
  6 27  1  0
  7 28  1  0
  9 29  1  0
 12 30  1  0
 12 31  1  0
 19 32  1  0
M  CHG  1  17  -1
M  END
>  <UniqueID>  (51) 
51

>  <SMILES>  (51) 
COCCc1ccc2cc(C(N)=O)n(C(=O)[O-])c2c1

>  <Energy>  (51) 
70.04167861065064

>  <Genealogy>  (51) 
COCCc1ccc2cc(C(N)=O)n(C(=O)[O-])c2c1 (protonated)
COCCc1ccc2cc(C(N)=O)n(C(=O)[O-])c2c1 (3D coordinates assigned)
COCCc1ccc2cc(C(N)=O)n(C(=O)[O-])c2c1 (optimized conformer: 70.04167861065064 kcal/mol)

>  <smiles>  (51) 
COCCc1ccc2cc(C(N)=O)n(C(=O)O)c2c1

>  <score_type>  (51) 
oracle

>  <origin>  (51) 
adg

>  <m_score__min__energy>  (51) 
-6.1799999999999997

>  <m_primary>  (51) 
energy

$$$$
51:0
     RDKit          3D

 38 40  0  0  0  0  0  0  0  0999 V2000
  150.0090  150.7720  131.2840 C   0  0  0  0  0  0  0  0  0  0  0  0
  148.8550  151.6240  131.6230 N   0  0  0  0  0  0  0  0  0  0  0  0
  147.7300  150.7570  132.0170 C   0  0  0  0  0  0  0  0  0  0  0  0
  149.2090  152.5250  132.7410 C   0  0  0  0  0  0  0  0  0  0  0  0
  148.0600  153.3650  133.2220 C   0  0  0  0  0  0  0  0  0  0  0  0
  148.6200  154.6610  132.8060 N   0  0  0  0  0  0  0  0  0  0  0  0
  148.2480  156.0390  132.8610 C   0  0  0  0  0  0  0  0  0  0  0  0
  149.2120  157.0420  132.6030 C   0  0  0  0  0  0  0  0  0  0  0  0
  148.8540  158.4010  132.6430 C   0  0  0  0  0  0  0  0  0  0  0  0
  147.5340  158.7200  132.9490 C   0  0  0  0  0  0  0  0  0  0  0  0
  146.9150  159.9460  133.0270 C   0  0  0  0  0  0  0  0  0  0  0  0
  145.5890  159.6700  133.3540 C   0  0  0  0  0  0  0  0  0  0  0  0
  144.5860  160.7200  133.6260 C   0  0  0  0  0  0  0  0  0  0  0  0
  143.2040  160.5010  133.3610 N   0  0  0  0  0  0  0  0  0  0  0  0
  144.9490  161.8090  134.1470 O   0  0  0  0  0  0  0  0  0  0  0  0
  145.3920  158.3260  133.4650 N   0  0  0  0  0  0  0  0  0  0  0  0
  144.1530  157.6360  133.6920 C   0  0  0  0  0  0  0  0  0  0  0  0
  143.9920  156.9410  134.7300 O   0  0  0  0  0  0  0  0  0  0  0  0
  143.1300  157.7040  132.7540 O   0  0  0  0  0  0  0  0  0  0  0  0
  146.5940  157.7580  133.2160 C   0  0  0  0  0  0  0  0  0  0  0  0
  146.9190  156.3970  133.1660 C   0  0  0  0  0  0  0  0  0  0  0  0
  149.7430  153.8560  132.2930 C   0  0  0  0  0  0  0  0  0  0  0  0
  150.4880  150.4184  132.2090 H   0  0  0  0  0  0  0  0  0  0  0  0
  149.6667  149.9083  130.6950 H   0  0  0  0  0  0  0  0  0  0  0  0
  150.7336  151.3535  130.6950 H   0  0  0  0  0  0  0  0  0  0  0  0
  147.6697  150.7106  133.1144 H   0  0  0  0  0  0  0  0  0  0  0  0
  146.7921  151.1681  131.6153 H   0  0  0  0  0  0  0  0  0  0  0  0
  147.8886  149.7453  131.6153 H   0  0  0  0  0  0  0  0  0  0  0  0
  149.7632  151.8111  133.3680 H   0  0  0  0  0  0  0  0  0  0  0  0
  147.1170  153.1267  132.7083 H   0  0  0  0  0  0  0  0  0  0  0  0
  147.7753  153.2615  134.2795 H   0  0  0  0  0  0  0  0  0  0  0  0
  150.2484  156.7566  132.3696 H   0  0  0  0  0  0  0  0  0  0  0  0
  149.5945  159.1883  132.4387 H   0  0  0  0  0  0  0  0  0  0  0  0
  147.3702  160.9343  132.8655 H   0  0  0  0  0  0  0  0  0  0  0  0
  142.8990  159.8660  132.5900 H   0  0  0  0  0  0  0  0  0  0  0  0
  146.1574  155.6273  133.3596 H   0  0  0  0  0  0  0  0  0  0  0  0
  149.8489  153.9241  131.2002 H   0  0  0  0  0  0  0  0  0  0  0  0
  150.7515  154.1304  132.6359 H   0  0  0  0  0  0  0  0  0  0  0  0
  1  2  1  0
  2  3  1  0
  2  4  1  0
  4  5  1  0
  5  6  1  0
  6  7  1  0
  7  8  2  0
  8  9  1  0
  9 10  2  0
 10 11  1  0
 11 12  2  0
 12 13  1  0
 13 14  1  0
 13 15  2  0
 12 16  1  0
 16 17  1  0
 17 18  2  0
 17 19  1  0
 16 20  1  0
 20 21  2  0
  6 22  1  0
 22  4  1  0
 21  7  1  0
 20 10  1  0
  1 23  1  0
  1 24  1  0
  1 25  1  0
  3 26  1  0
  3 27  1  0
  3 28  1  0
  4 29  1  0
  5 30  1  0
  5 31  1  0
  8 32  1  0
  9 33  1  0
 11 34  1  0
 14 35  1  0
 21 36  1  0
 22 37  1  0
 22 38  1  0
M  CHG  2  14  -1  19  -1
M  END
>  <UniqueID>  (52) 
52

>  <SMILES>  (52) 
CN(C)C1CN(c2ccc3cc(C([NH-])=O)n(C(=O)[O-])c3c2)C1

>  <Energy>  (52) 
123.80112948647242

>  <Genealogy>  (52) 
CN(C)C1CN(c2ccc3cc(C([NH-])=O)n(C(=O)[O-])c3c2)C1 (protonated)
CN(C)C1CN(c2ccc3cc(C([NH-])=O)n(C(=O)[O-])c3c2)C1 (3D coordinates assigned)
CN(C)C1CN(c2ccc3cc(C([NH-])=O)n(C(=O)[O-])c3c2)C1 (nonaromatic ring conformer: 123.80112948647242 kcal/mol)

>  <smiles>  (52) 
CN(C)C1CN(c2ccc3cc(C(N)=O)n(C(=O)O)c3c2)C1

>  <score_type>  (52) 
oracle

>  <origin>  (52) 
adg

>  <m_score__min__energy>  (52) 
-7.21

>  <m_primary>  (52) 
energy

$$$$
52:0
     RDKit          3D

 27 28  0  0  0  0  0  0  0  0999 V2000
  148.5560  161.5660  131.6770 N   0  0  0  0  0  0  0  0  0  0  0  0
  148.4860  160.3000  131.0250 C   0  0  0  0  0  0  0  0  0  0  0  0
  148.7170  160.2320  129.7880 O   0  0  0  0  0  0  0  0  0  0  0  0
  148.2010  159.0660  131.7850 C   0  0  0  0  0  0  0  0  0  0  0  0
  148.9630  157.9040  131.6720 C   0  0  0  0  0  0  0  0  0  0  0  0
  148.4320  157.0280  132.5910 C   0  0  0  0  0  0  0  0  0  0  0  0
  148.8000  155.7210  132.8980 C   0  0  0  0  0  0  0  0  0  0  0  0
  148.0550  155.0400  133.8750 C   0  0  0  0  0  0  0  0  0  0  0  0
  146.9530  155.6660  134.5090 C   0  0  0  0  0  0  0  0  0  0  0  0
  146.1760  154.9330  135.5660 C   0  0  0  0  0  0  0  0  0  0  0  0
  147.1070  154.1600  136.4450 C   0  0  0  0  0  0  0  0  0  0  0  0
  146.8020  153.0000  136.8280 O   0  0  0  0  0  0  0  0  0  0  0  0
  148.3360  154.7030  136.8000 O   0  0  0  0  0  0  0  0  0  0  0  0
  146.6150  156.9970  134.1780 C   0  0  0  0  0  0  0  0  0  0  0  0
  147.3870  157.6590  133.2160 C   0  0  0  0  0  0  0  0  0  0  0  0
  147.2320  158.9110  132.7320 N   0  0  0  0  0  0  0  0  0  0  0  0
  146.1970  159.8400  133.0900 C   0  0  0  0  0  0  0  0  0  0  0  0
  146.5250  161.0660  133.7410 N   0  0  0  0  0  0  0  0  0  0  0  0
  144.9910  159.5720  132.8420 O   0  0  0  0  0  0  0  0  0  0  0  0
  147.7270  161.9600  132.1750 H   0  0  0  0  0  0  0  0  0  0  0  0
  149.8092  157.7253  130.9924 H   0  0  0  0  0  0  0  0  0  0  0  0
  149.6477  155.2366  132.3913 H   0  0  0  0  0  0  0  0  0  0  0  0
  148.3296  154.0111  134.1505 H   0  0  0  0  0  0  0  0  0  0  0  0
  145.6179  155.6585  136.1761 H   0  0  0  0  0  0  0  0  0  0  0  0
  145.4771  154.2359  135.0807 H   0  0  0  0  0  0  0  0  0  0  0  0
  145.7664  157.5007  134.6640 H   0  0  0  0  0  0  0  0  0  0  0  0
  147.0150  161.8310  133.2270 H   0  0  0  0  0  0  0  0  0  0  0  0
  1  2  1  0
  2  3  2  0
  2  4  1  0
  4  5  2  0
  5  6  1  0
  6  7  2  0
  7  8  1  0
  8  9  2  0
  9 10  1  0
 10 11  1  0
 11 12  2  0
 11 13  1  0
  9 14  1  0
 14 15  2  0
 15 16  1  0
 16 17  1  0
 17 18  1  0
 17 19  2  0
 16  4  1  0
 15  6  1  0
  1 20  1  0
  5 21  1  0
  7 22  1  0
  8 23  1  0
 10 24  1  0
 10 25  1  0
 14 26  1  0
 18 27  1  0
M  CHG  3   1  -1  13  -1  18  -1
M  END
>  <UniqueID>  (53) 
53

>  <SMILES>  (53) 
[NH-]C(=O)c1cc2ccc(CC(=O)[O-])cc2n1C([NH-])=O

>  <Energy>  (53) 
65.26071329245633

>  <Genealogy>  (53) 
[NH-]C(=O)c1cc2ccc(CC(=O)[O-])cc2n1C([NH-])=O (protonated)
[NH-]C(=O)c1cc2ccc(CC(=O)[O-])cc2n1C([NH-])=O (3D coordinates assigned)
[NH-]C(=O)c1cc2ccc(CC(=O)[O-])cc2n1C([NH-])=O (optimized conformer: 65.26071329245633 kcal/mol)

>  <smiles>  (53) 
NC(=O)c1cc2ccc(CC(=O)O)cc2n1C(N)=O

>  <score_type>  (53) 
oracle

>  <origin>  (53) 
adg

>  <m_score__min__energy>  (53) 
-6.6500000000000004

>  <m_primary>  (53) 
energy

$$$$
53:0
     RDKit          3D

 50 53  0  0  0  0  0  0  0  0999 V2000
  150.2750  149.9790  131.5080 C   0  0  0  0  0  0  0  0  0  0  0  0
  149.3680  151.1250  131.8180 C   0  0  0  0  0  0  0  0  0  0  0  0
  148.0270  151.0060  132.1870 C   0  0  0  0  0  0  0  0  0  0  0  0
  147.6250  152.2990  132.4420 C   0  0  0  0  0  0  0  0  0  0  0  0
  146.4170  152.8360  132.8590 C   0  0  0  0  0  0  0  0  0  0  0  0
  145.3390  152.0440  133.0890 F   0  0  0  0  0  0  0  0  0  0  0  0
  146.3440  154.1870  133.0450 N   0  0  0  0  0  0  0  0  0  0  0  0
  147.4350  155.0010  132.8250 C   0  0  0  0  0  0  0  0  0  0  0  0
  147.3500  156.4670  133.0270 C   0  0  0  0  0  0  0  0  0  0  0  0
  148.5300  157.2580  132.9770 C   0  0  0  0  0  0  0  0  0  0  0  0
  148.4720  158.6500  133.1500 C   0  0  0  0  0  0  0  0  0  0  0  0
  147.2270  159.2290  133.3730 C   0  0  0  0  0  0  0  0  0  0  0  0
  146.8830  160.5510  133.5450 C   0  0  0  0  0  0  0  0  0  0  0  0
  145.4990  160.5530  133.7140 C   0  0  0  0  0  0  0  0  0  0  0  0
  144.7200  161.7710  134.0190 C   0  0  0  0  0  0  0  0  0  0  0  0
  143.3300  161.8490  133.7120 N   0  0  0  0  0  0  0  0  0  0  0  0
  145.2770  162.7370  134.6040 O   0  0  0  0  0  0  0  0  0  0  0  0
  145.0070  159.2840  133.6360 N   0  0  0  0  0  0  0  0  0  0  0  0
  143.6370  158.8600  133.6860 C   0  0  0  0  0  0  0  0  0  0  0  0
  143.1380  158.2420  132.7070 O   0  0  0  0  0  0  0  0  0  0  0  0
  142.8810  159.1170  134.8400 O   0  0  0  0  0  0  0  0  0  0  0  0
  141.4530  159.0600  134.9520 C   0  0  0  0  0  0  0  0  0  0  0  0
  140.9830  159.7410  136.2520 C   0  0  0  0  0  0  0  0  0  0  0  0
  140.7860  159.7080  133.7250 C   0  0  0  0  0  0  0  0  0  0  0  0
  141.0630  157.5740  135.0000 C   0  0  0  0  0  0  0  0  0  0  0  0
  146.0780  158.4860  133.4330 C   0  0  0  0  0  0  0  0  0  0  0  0
  146.1030  157.1000  133.2410 C   0  0  0  0  0  0  0  0  0  0  0  0
  148.6250  154.4500  132.4250 N   0  0  0  0  0  0  0  0  0  0  0  0
  148.6940  153.1110  132.2390 C   0  0  0  0  0  0  0  0  0  0  0  0
  149.7770  152.4160  131.8620 N   0  0  0  0  0  0  0  0  0  0  0  0
  150.6311  149.5290  132.4464 H   0  0  0  0  0  0  0  0  0  0  0  0
  149.7266  149.2247  130.9247 H   0  0  0  0  0  0  0  0  0  0  0  0
  151.1351  150.3395  130.9247 H   0  0  0  0  0  0  0  0  0  0  0  0
  147.4265  150.0871  132.2582 H   0  0  0  0  0  0  0  0  0  0  0  0
  145.4430  154.5840  133.3900 H   0  0  0  0  0  0  0  0  0  0  0  0
  149.5014  156.7730  132.8004 H   0  0  0  0  0  0  0  0  0  0  0  0
  149.3836  159.2643  133.1104 H   0  0  0  0  0  0  0  0  0  0  0  0
  147.5567  161.4206  133.5484 H   0  0  0  0  0  0  0  0  0  0  0  0
  142.7180  161.0040  133.7670 H   0  0  0  0  0  0  0  0  0  0  0  0
  141.3681  159.1830  137.1182 H   0  0  0  0  0  0  0  0  0  0  0  0
  141.3619  160.7732  136.2829 H   0  0  0  0  0  0  0  0  0  0  0  0
  139.8835  159.7529  136.2829 H   0  0  0  0  0  0  0  0  0  0  0  0
  140.0343  160.4382  134.0592 H   0  0  0  0  0  0  0  0  0  0  0  0
  141.5494  160.2186  133.1196 H   0  0  0  0  0  0  0  0  0  0  0  0
  140.2977  158.9302  133.1196 H   0  0  0  0  0  0  0  0  0  0  0  0
  140.9782  157.2509  136.0480 H   0  0  0  0  0  0  0  0  0  0  0  0
  140.0971  157.4319  134.4932 H   0  0  0  0  0  0  0  0  0  0  0  0
  141.8346  156.9759  134.4932 H   0  0  0  0  0  0  0  0  0  0  0  0
  145.1718  156.5146  133.2562 H   0  0  0  0  0  0  0  0  0  0  0  0
  150.7310  152.7900  131.6590 H   0  0  0  0  0  0  0  0  0  0  0  0
  1  2  1  0
  2  3  2  0
  3  4  1  0
  4  5  2  0
  5  6  1  0
  5  7  1  0
  7  8  2  0
  8  9  1  0
  9 10  2  0
 10 11  1  0
 11 12  2  0
 12 13  1  0
 13 14  2  0
 14 15  1  0
 15 16  1  0
 15 17  2  0
 14 18  1  0
 18 19  1  0
 19 20  2  0
 19 21  1  0
 21 22  1  0
 22 23  1  0
 22 24  1  0
 22 25  1  0
 18 26  1  0
 26 27  2  0
  8 28  1  0
 28 29  2  0
 29 30  1  0
 30  2  1  0
 29  4  1  0
 27  9  1  0
 26 12  1  0
  1 31  1  0
  1 32  1  0
  1 33  1  0
  3 34  1  0
  7 35  1  0
 10 36  1  0
 11 37  1  0
 13 38  1  0
 16 39  1  0
 23 40  1  0
 23 41  1  0
 23 42  1  0
 24 43  1  0
 24 44  1  0
 24 45  1  0
 25 46  1  0
 25 47  1  0
 25 48  1  0
 27 49  1  0
 30 50  1  0
M  CHG  2   7   1  16  -1
M  END
>  <UniqueID>  (54) 
54

>  <SMILES>  (54) 
Cc1cc2c(F)[nH+]c(-c3ccc4cc(C([NH-])=O)n(C(=O)OC(C)(C)C)c4c3)nc2[nH]1

>  <Energy>  (54) 
125.3806463861281

>  <Genealogy>  (54) 
Cc1cc2c(F)[nH+]c(-c3ccc4cc(C([NH-])=O)n(C(=O)OC(C)(C)C)c4c3)nc2[nH]1 (protonated)
Cc1cc2c(F)[nH+]c(-c3ccc4cc(C([NH-])=O)n(C(=O)OC(C)(C)C)c4c3)nc2[nH]1 (3D coordinates assigned)
Cc1cc2c(F)[nH+]c(-c3ccc4cc(C([NH-])=O)n(C(=O)OC(C)(C)C)c4c3)nc2[nH]1 (optimized conformer: 125.3806463861281 kcal/mol)

>  <smiles>  (54) 
Cc1cc2c(F)nc(-c3ccc4cc(C(N)=O)n(C(=O)OC(C)(C)C)c4c3)nc2[nH]1

>  <score_type>  (54) 
oracle

>  <origin>  (54) 
adg

>  <m_score__min__energy>  (54) 
-9.1699999999999999

>  <m_primary>  (54) 
energy

$$$$
54:0
     RDKit          3D

 38 39  0  0  0  0  0  0  0  0999 V2000
  149.9760  159.9140  129.2590 C   0  0  0  0  0  0  0  0  0  0  0  0
  149.7050  160.1070  130.7540 C   0  0  0  0  0  0  0  0  0  0  0  0
  148.8400  161.3410  131.0210 C   0  0  0  0  0  0  0  0  0  0  0  0
  149.1080  158.9060  131.3400 N   0  0  0  0  0  0  0  0  0  0  0  0
  148.6490  158.7600  132.6900 C   0  0  0  0  0  0  0  0  0  0  0  0
  149.2490  159.3410  133.6350 O   0  0  0  0  0  0  0  0  0  0  0  0
  147.5070  157.9370  132.9720 N   0  0  0  0  0  0  0  0  0  0  0  0
  146.2300  158.3480  133.2100 C   0  0  0  0  0  0  0  0  0  0  0  0
  145.7890  159.7480  133.3780 C   0  0  0  0  0  0  0  0  0  0  0  0
  146.7250  160.8260  133.3750 N   0  0  0  0  0  0  0  0  0  0  0  0
  144.5690  159.9910  133.5780 O   0  0  0  0  0  0  0  0  0  0  0  0
  145.3750  157.2550  133.3220 C   0  0  0  0  0  0  0  0  0  0  0  0
  146.1760  156.1490  133.1540 C   0  0  0  0  0  0  0  0  0  0  0  0
  145.8470  154.7970  133.1620 C   0  0  0  0  0  0  0  0  0  0  0  0
  146.8740  153.8670  132.9270 C   0  0  0  0  0  0  0  0  0  0  0  0
  148.1990  154.3000  132.6630 C   0  0  0  0  0  0  0  0  0  0  0  0
  149.3030  153.2870  132.4340 C   0  0  0  0  0  0  0  0  0  0  0  0
  149.2410  152.8010  131.1390 F   0  0  0  0  0  0  0  0  0  0  0  0
  150.5400  153.8910  132.5980 F   0  0  0  0  0  0  0  0  0  0  0  0
  149.1840  152.1160  133.4150 C   0  0  0  0  0  0  0  0  0  0  0  0
  148.2160  151.2250  132.9830 F   0  0  0  0  0  0  0  0  0  0  0  0
  150.3940  151.4530  133.5220 F   0  0  0  0  0  0  0  0  0  0  0  0
  148.8250  152.5920  134.6630 F   0  0  0  0  0  0  0  0  0  0  0  0
  148.4950  155.6840  132.6780 C   0  0  0  0  0  0  0  0  0  0  0  0
  147.4580  156.5870  132.9410 C   0  0  0  0  0  0  0  0  0  0  0  0
  150.8655  159.2806  129.1264 H   0  0  0  0  0  0  0  0  0  0  0  0
  149.1076  159.4298  128.7884 H   0  0  0  0  0  0  0  0  0  0  0  0
  150.1496  160.8930  128.7884 H   0  0  0  0  0  0  0  0  0  0  0  0
  150.6753  160.2780  131.2431 H   0  0  0  0  0  0  0  0  0  0  0  0
  148.7366  161.4885  132.1062 H   0  0  0  0  0  0  0  0  0  0  0  0
  149.3163  162.2263  130.5744 H   0  0  0  0  0  0  0  0  0  0  0  0
  147.8454  161.1952  130.5744 H   0  0  0  0  0  0  0  0  0  0  0  0
  147.7540  160.6500  133.3920 H   0  0  0  0  0  0  0  0  0  0  0  0
  146.3890  161.8120  133.4470 H   0  0  0  0  0  0  0  0  0  0  0  0
  144.2906  157.2720  133.5056 H   0  0  0  0  0  0  0  0  0  0  0  0
  144.8143  154.4662  133.3467 H   0  0  0  0  0  0  0  0  0  0  0  0
  146.6479  152.7907  132.9480 H   0  0  0  0  0  0  0  0  0  0  0  0
  149.5174  156.0422  132.4872 H   0  0  0  0  0  0  0  0  0  0  0  0
  1  2  1  0
  2  3  1  0
  2  4  1  0
  4  5  1  0
  5  6  2  0
  5  7  1  0
  7  8  1  0
  8  9  1  0
  9 10  1  0
  9 11  2  0
  8 12  2  0
 12 13  1  0
 13 14  2  0
 14 15  1  0
 15 16  2  0
 16 17  1  0
 17 18  1  0
 17 19  1  0
 17 20  1  0
 20 21  1  0
 20 22  1  0
 20 23  1  0
 16 24  1  0
 24 25  2  0
 25  7  1  0
 25 13  1  0
  1 26  1  0
  1 27  1  0
  1 28  1  0
  2 29  1  0
  3 30  1  0
  3 31  1  0
  3 32  1  0
 10 33  1  0
 10 34  1  0
 12 35  1  0
 14 36  1  0
 15 37  1  0
 24 38  1  0
M  CHG  1   4  -1
M  END
>  <UniqueID>  (55) 
55

>  <SMILES>  (55) 
CC(C)[N-]C(=O)n1c(C(N)=O)cc2ccc(C(F)(F)C(F)(F)F)cc21

>  <Energy>  (55) 
71.67111024448494

>  <Genealogy>  (55) 
CC(C)[N-]C(=O)n1c(C(N)=O)cc2ccc(C(F)(F)C(F)(F)F)cc21 (protonated)
CC(C)[N-]C(=O)n1c(C(N)=O)cc2ccc(C(F)(F)C(F)(F)F)cc21 (3D coordinates assigned)
CC(C)[N-]C(=O)n1c(C(N)=O)cc2ccc(C(F)(F)C(F)(F)F)cc21 (optimized conformer: 71.67111024448494 kcal/mol)

>  <smiles>  (55) 
CC(C)NC(=O)n1c(C(N)=O)cc2ccc(C(F)(F)C(F)(F)F)cc21

>  <score_type>  (55) 
oracle

>  <origin>  (55) 
adg

>  <m_score__min__energy>  (55) 
-6.7300000000000004

>  <m_primary>  (55) 
energy

$$$$
55:0
     RDKit          3D

 29 31  0  0  0  0  0  0  0  0999 V2000
  140.6790  159.2610  136.5120 N   0  0  0  0  0  0  0  0  0  0  0  0
  140.8500  158.8350  135.1640 C   0  0  0  0  0  0  0  0  0  0  0  0
  139.8330  158.6320  134.4470 O   0  0  0  0  0  0  0  0  0  0  0  0
  142.1960  158.5710  134.6140 C   0  0  0  0  0  0  0  0  0  0  0  0
  142.8160  157.3250  134.6760 C   0  0  0  0  0  0  0  0  0  0  0  0
  144.0720  157.5170  134.1500 C   0  0  0  0  0  0  0  0  0  0  0  0
  145.1100  156.6100  133.9570 C   0  0  0  0  0  0  0  0  0  0  0  0
  146.2910  157.0770  133.3600 C   0  0  0  0  0  0  0  0  0  0  0  0
  146.4180  158.4330  132.9580 C   0  0  0  0  0  0  0  0  0  0  0  0
  147.6670  158.9130  132.3170 C   0  0  0  0  0  0  0  0  0  0  0  0
  147.6970  160.1260  131.6120 C   0  0  0  0  0  0  0  0  0  0  0  0
  148.8870  160.5500  131.0230 C   0  0  0  0  0  0  0  0  0  0  0  0
  150.0010  159.7830  131.1360 N   0  0  0  0  0  0  0  0  0  0  0  0
  149.9840  158.6270  131.8010 N   0  0  0  0  0  0  0  0  0  0  0  0
  148.8530  158.1670  132.3970 C   0  0  0  0  0  0  0  0  0  0  0  0
  145.3380  159.3230  133.1720 C   0  0  0  0  0  0  0  0  0  0  0  0
  144.1790  158.8340  133.7860 C   0  0  0  0  0  0  0  0  0  0  0  0
  143.0320  159.4950  134.0620 N   0  0  0  0  0  0  0  0  0  0  0  0
  142.7370  160.8630  133.7400 C   0  0  0  0  0  0  0  0  0  0  0  0
  143.6530  161.7270  133.7320 O   0  0  0  0  0  0  0  0  0  0  0  0
  141.4420  161.2420  133.4060 O   0  0  0  0  0  0  0  0  0  0  0  0
  139.7260  159.4020  136.9140 H   0  0  0  0  0  0  0  0  0  0  0  0
  142.3912  156.3871  135.0633 H   0  0  0  0  0  0  0  0  0  0  0  0
  145.0076  155.5585  134.2633 H   0  0  0  0  0  0  0  0  0  0  0  0
  147.1298  156.3832  133.2013 H   0  0  0  0  0  0  0  0  0  0  0  0
  146.7873  160.7382  131.5248 H   0  0  0  0  0  0  0  0  0  0  0  0
  148.9230  161.5002  130.4701 H   0  0  0  0  0  0  0  0  0  0  0  0
  148.8669  157.2113  132.9414 H   0  0  0  0  0  0  0  0  0  0  0  0
  145.4081  160.3762  132.8624 H   0  0  0  0  0  0  0  0  0  0  0  0
  1  2  1  0
  2  3  2  0
  2  4  1  0
  4  5  2  0
  5  6  1  0
  6  7  2  0
  7  8  1  0
  8  9  2  0
  9 10  1  0
 10 11  2  0
 11 12  1  0
 12 13  2  0
 13 14  1  0
 14 15  2  0
  9 16  1  0
 16 17  2  0
 17 18  1  0
 18 19  1  0
 19 20  2  0
 19 21  1  0
 18  4  1  0
 17  6  1  0
 15 10  1  0
  1 22  1  0
  5 23  1  0
  7 24  1  0
  8 25  1  0
 11 26  1  0
 12 27  1  0
 15 28  1  0
 16 29  1  0
M  CHG  2   1  -1  21  -1
M  END
>  <UniqueID>  (56) 
56

>  <SMILES>  (56) 
[NH-]C(=O)c1cc2ccc(-c3ccnnc3)cc2n1C(=O)[O-]

>  <Energy>  (56) 
78.57175141645273

>  <Genealogy>  (56) 
[NH-]C(=O)c1cc2ccc(-c3ccnnc3)cc2n1C(=O)[O-] (protonated)
[NH-]C(=O)c1cc2ccc(-c3ccnnc3)cc2n1C(=O)[O-] (3D coordinates assigned)
[NH-]C(=O)c1cc2ccc(-c3ccnnc3)cc2n1C(=O)[O-] (optimized conformer: 78.57175141645273 kcal/mol)

>  <smiles>  (56) 
NC(=O)c1cc2ccc(-c3ccnnc3)cc2n1C(=O)O

>  <score_type>  (56) 
oracle

>  <origin>  (56) 
adg

>  <m_score__min__energy>  (56) 
-7.21

>  <m_primary>  (56) 
energy

$$$$
56:0
     RDKit          3D

 35 37  0  0  0  0  0  0  0  0999 V2000
  147.7140  160.5340  132.1740 N   0  0  0  0  0  0  0  0  0  0  0  0
  147.4500  159.5070  133.1270 C   0  0  0  0  0  0  0  0  0  0  0  0
  148.4160  158.9430  133.7070 O   0  0  0  0  0  0  0  0  0  0  0  0
  146.0690  159.0580  133.3990 C   0  0  0  0  0  0  0  0  0  0  0  0
  145.6810  157.7200  133.3780 C   0  0  0  0  0  0  0  0  0  0  0  0
  144.3210  157.7310  133.5810 C   0  0  0  0  0  0  0  0  0  0  0  0
  143.4170  156.6750  133.6580 C   0  0  0  0  0  0  0  0  0  0  0  0
  142.0670  156.9790  133.8970 C   0  0  0  0  0  0  0  0  0  0  0  0
  141.6490  158.3220  134.0670 C   0  0  0  0  0  0  0  0  0  0  0  0
  140.1940  158.6360  134.2880 C   0  0  0  0  0  0  0  0  0  0  0  0
  139.5580  159.0750  132.9960 C   0  0  0  0  0  0  0  0  0  0  0  0
  138.7360  158.1920  132.2750 C   0  0  0  0  0  0  0  0  0  0  0  0
  138.1160  158.6120  131.0950 C   0  0  0  0  0  0  0  0  0  0  0  0
  138.3030  159.9180  130.6320 C   0  0  0  0  0  0  0  0  0  0  0  0
  137.6980  160.3240  129.4880 F   0  0  0  0  0  0  0  0  0  0  0  0
  139.1100  160.8050  131.3490 C   0  0  0  0  0  0  0  0  0  0  0  0
  139.7310  160.3890  132.5310 C   0  0  0  0  0  0  0  0  0  0  0  0
  142.5930  159.3700  133.9740 C   0  0  0  0  0  0  0  0  0  0  0  0
  143.9290  159.0380  133.7190 C   0  0  0  0  0  0  0  0  0  0  0  0
  144.9910  159.8650  133.6150 N   0  0  0  0  0  0  0  0  0  0  0  0
  144.9790  161.2890  133.8020 C   0  0  0  0  0  0  0  0  0  0  0  0
  146.1860  161.9820  134.1100 N   0  0  0  0  0  0  0  0  0  0  0  0
  143.8960  161.9280  133.7300 O   0  0  0  0  0  0  0  0  0  0  0  0
  147.3790  161.5100  132.3290 H   0  0  0  0  0  0  0  0  0  0  0  0
  146.3259  156.8412  133.2304 H   0  0  0  0  0  0  0  0  0  0  0  0
  143.7502  155.6339  133.5353 H   0  0  0  0  0  0  0  0  0  0  0  0
  141.3272  156.1669  133.9527 H   0  0  0  0  0  0  0  0  0  0  0  0
  139.6801  157.7372  134.6596 H   0  0  0  0  0  0  0  0  0  0  0  0
  140.1086  159.4476  135.0256 H   0  0  0  0  0  0  0  0  0  0  0  0
  138.5800  157.1664  132.6408 H   0  0  0  0  0  0  0  0  0  0  0  0
  137.4803  157.9144  130.5300 H   0  0  0  0  0  0  0  0  0  0  0  0
  139.2571  161.8319  130.9833 H   0  0  0  0  0  0  0  0  0  0  0  0
  140.3571  161.0933  133.0985 H   0  0  0  0  0  0  0  0  0  0  0  0
  142.2860  160.4189  134.0987 H   0  0  0  0  0  0  0  0  0  0  0  0
  146.9120  162.1470  133.3770 H   0  0  0  0  0  0  0  0  0  0  0  0
  1  2  1  0
  2  3  2  0
  2  4  1  0
  4  5  2  0
  5  6  1  0
  6  7  2  0
  7  8  1  0
  8  9  2  0
  9 10  1  0
 10 11  1  0
 11 12  2  0
 12 13  1  0
 13 14  2  0
 14 15  1  0
 14 16  1  0
 16 17  2  0
  9 18  1  0
 18 19  2  0
 19 20  1  0
 20 21  1  0
 21 22  1  0
 21 23  2  0
 20  4  1  0
 19  6  1  0
 17 11  1  0
  1 24  1  0
  5 25  1  0
  7 26  1  0
  8 27  1  0
 10 28  1  0
 10 29  1  0
 12 30  1  0
 13 31  1  0
 16 32  1  0
 17 33  1  0
 18 34  1  0
 22 35  1  0
M  CHG  2   1  -1  22  -1
M  END
>  <UniqueID>  (57) 
57

>  <SMILES>  (57) 
[NH-]C(=O)c1cc2ccc(Cc3ccc(F)cc3)cc2n1C([NH-])=O

>  <Energy>  (57) 
75.66951080782438

>  <Genealogy>  (57) 
[NH-]C(=O)c1cc2ccc(Cc3ccc(F)cc3)cc2n1C([NH-])=O (protonated)
[NH-]C(=O)c1cc2ccc(Cc3ccc(F)cc3)cc2n1C([NH-])=O (3D coordinates assigned)
[NH-]C(=O)c1cc2ccc(Cc3ccc(F)cc3)cc2n1C([NH-])=O (optimized conformer: 75.66951080782438 kcal/mol)

>  <smiles>  (57) 
NC(=O)c1cc2ccc(Cc3ccc(F)cc3)cc2n1C(N)=O

>  <score_type>  (57) 
oracle

>  <origin>  (57) 
adg

>  <m_score__min__energy>  (57) 
-7.71

>  <m_primary>  (57) 
energy

$$$$
57:0
     RDKit          3D

 50 52  0  0  0  0  0  0  0  0999 V2000
  141.4980  157.0910  134.8710 C   0  0  0  0  0  0  0  0  0  0  0  0
  142.6140  157.9360  134.3350 C   0  0  0  0  0  0  0  0  0  0  0  0
  142.4360  159.3340  134.1820 C   0  0  0  0  0  0  0  0  0  0  0  0
  143.4880  160.1430  133.7200 C   0  0  0  0  0  0  0  0  0  0  0  0
  144.7030  159.5300  133.4270 C   0  0  0  0  0  0  0  0  0  0  0  0
  145.8900  160.0740  132.9890 C   0  0  0  0  0  0  0  0  0  0  0  0
  146.7710  158.9980  132.8850 C   0  0  0  0  0  0  0  0  0  0  0  0
  148.1630  159.1180  132.4040 C   0  0  0  0  0  0  0  0  0  0  0  0
  148.6430  158.2370  131.3890 N   0  0  0  0  0  0  0  0  0  0  0  0
  148.9420  159.9790  132.8920 O   0  0  0  0  0  0  0  0  0  0  0  0
  146.1520  157.8390  133.2400 N   0  0  0  0  0  0  0  0  0  0  0  0
  146.7290  156.5250  133.3220 C   0  0  0  0  0  0  0  0  0  0  0  0
  147.9790  156.4120  133.4370 O   0  0  0  0  0  0  0  0  0  0  0  0
  145.8770  155.3130  133.2820 C   0  0  0  0  0  0  0  0  0  0  0  0
  145.7170  154.5180  134.4290 C   0  0  0  0  0  0  0  0  0  0  0  0
  144.9140  153.3740  134.3910 C   0  0  0  0  0  0  0  0  0  0  0  0
  144.2640  152.9930  133.2120 C   0  0  0  0  0  0  0  0  0  0  0  0
  143.4700  151.8370  133.2510 O   0  0  0  0  0  0  0  0  0  0  0  0
  141.7550  151.7590  133.2950 S   0  0  0  0  0  0  0  0  0  0  0  0
  141.1490  152.9830  132.6650 O   0  0  0  0  0  0  0  0  0  0  0  0
  141.3460  151.7320  134.7420 O   0  0  0  0  0  0  0  0  0  0  0  0
  141.1650  150.3020  132.5110 N   0  0  0  0  0  0  0  0  0  0  0  0
  140.5390  149.4330  133.5280 C   0  0  0  0  0  0  0  0  0  0  0  0
  142.2820  149.5840  131.8630 C   0  0  0  0  0  0  0  0  0  0  0  0
  140.1650  150.6770  131.4910 C   0  0  0  0  0  0  0  0  0  0  0  0
  144.4210  153.7890  132.0620 C   0  0  0  0  0  0  0  0  0  0  0  0
  145.2260  154.9310  132.0960 C   0  0  0  0  0  0  0  0  0  0  0  0
  144.8900  158.1810  133.5750 C   0  0  0  0  0  0  0  0  0  0  0  0
  143.8660  157.3520  134.0460 C   0  0  0  0  0  0  0  0  0  0  0  0
  141.5207  157.1082  135.9706 H   0  0  0  0  0  0  0  0  0  0  0  0
  140.5350  157.4884  134.5179 H   0  0  0  0  0  0  0  0  0  0  0  0
  141.6193  156.0563  134.5179 H   0  0  0  0  0  0  0  0  0  0  0  0
  141.4654  159.7898  134.4272 H   0  0  0  0  0  0  0  0  0  0  0  0
  143.3555  161.2277  133.5937 H   0  0  0  0  0  0  0  0  0  0  0  0
  146.0986  161.1313  132.7684 H   0  0  0  0  0  0  0  0  0  0  0  0
  148.5290  157.2030  131.4790 H   0  0  0  0  0  0  0  0  0  0  0  0
  146.2266  154.7972  135.3630 H   0  0  0  0  0  0  0  0  0  0  0  0
  144.7917  152.7659  135.2994 H   0  0  0  0  0  0  0  0  0  0  0  0
  140.8010  149.7967  134.5325 H   0  0  0  0  0  0  0  0  0  0  0  0
  139.4461  149.4525  133.4045 H   0  0  0  0  0  0  0  0  0  0  0  0
  140.9036  148.4026  133.4045 H   0  0  0  0  0  0  0  0  0  0  0  0
  142.9418  149.1599  132.6342 H   0  0  0  0  0  0  0  0  0  0  0  0
  141.8822  148.7733  131.2362 H   0  0  0  0  0  0  0  0  0  0  0  0
  142.8535  150.2843  131.2362 H   0  0  0  0  0  0  0  0  0  0  0  0
  139.2460  151.0216  131.9877 H   0  0  0  0  0  0  0  0  0  0  0  0
  140.5674  151.4853  130.8628 H   0  0  0  0  0  0  0  0  0  0  0  0
  139.9367  149.8034  130.8628 H   0  0  0  0  0  0  0  0  0  0  0  0
  143.9068  153.5105  131.1303 H   0  0  0  0  0  0  0  0  0  0  0  0
  145.3514  155.5366  131.1863 H   0  0  0  0  0  0  0  0  0  0  0  0
  144.0323  156.2739  134.1873 H   0  0  0  0  0  0  0  0  0  0  0  0
  1  2  1  0
  2  3  2  0
  3  4  1  0
  4  5  2  0
  5  6  1  0
  6  7  2  0
  7  8  1  0
  8  9  1  0
  8 10  2  0
  7 11  1  0
 11 12  1  0
 12 13  2  0
 12 14  1  0
 14 15  2  0
 15 16  1  0
 16 17  2  0
 17 18  1  0
 18 19  1  0
 19 20  2  0
 19 21  2  0
 19 22  1  0
 22 23  1  0
 22 24  1  0
 22 25  1  0
 17 26  1  0
 26 27  2  0
 11 28  1  0
 28 29  2  0
 29  2  1  0
 28  5  1  0
 27 14  1  0
  1 30  1  0
  1 31  1  0
  1 32  1  0
  3 33  1  0
  4 34  1  0
  6 35  1  0
  9 36  1  0
 15 37  1  0
 16 38  1  0
 23 39  1  0
 23 40  1  0
 23 41  1  0
 24 42  1  0
 24 43  1  0
 24 44  1  0
 25 45  1  0
 25 46  1  0
 25 47  1  0
 26 48  1  0
 27 49  1  0
 29 50  1  0
M  CHG  2   9  -1  22   1
M  END
>  <UniqueID>  (58) 
58

>  <SMILES>  (58) 
Cc1ccc2cc(C([NH-])=O)n(C(=O)c3ccc(OS(=O)(=O)[N+](C)(C)C)cc3)c2c1

>  <Energy>  (58) 
91.93029041139724

>  <Genealogy>  (58) 
Cc1ccc2cc(C([NH-])=O)n(C(=O)c3ccc(OS(=O)(=O)[N+](C)(C)C)cc3)c2c1 (protonated)
Cc1ccc2cc(C([NH-])=O)n(C(=O)c3ccc(OS(=O)(=O)[N+](C)(C)C)cc3)c2c1 (3D coordinates assigned)
Cc1ccc2cc(C([NH-])=O)n(C(=O)c3ccc(OS(=O)(=O)[N+](C)(C)C)cc3)c2c1 (optimized conformer: 91.93029041139724 kcal/mol)

>  <smiles>  (58) 
Cc1ccc2cc(C(N)=O)n(C(=O)c3ccc(OS(=O)(=O)[N+](C)(C)C)cc3)c2c1

>  <score_type>  (58) 
oracle

>  <origin>  (58) 
adg

>  <m_score__min__energy>  (58) 
-7.8499999999999996

>  <m_primary>  (58) 
energy

$$$$
58:0
     RDKit          3D

 51 53  0  0  0  0  0  0  0  0999 V2000
  142.4640  159.3500  135.2530 C   0  0  0  0  0  0  0  0  0  0  0  0
  141.4450  158.9500  134.2610 N   0  0  0  0  0  0  0  0  0  0  0  0
  141.2200  160.0790  133.3340 C   0  0  0  0  0  0  0  0  0  0  0  0
  140.1710  158.5220  134.9190 C   0  0  0  0  0  0  0  0  0  0  0  0
  140.4180  157.8160  136.2820 C   0  0  0  0  0  0  0  0  0  0  0  0
  140.9900  156.3880  136.1210 C   0  0  0  0  0  0  0  0  0  0  0  0
  141.3410  156.1090  134.7150 N   0  0  0  0  0  0  0  0  0  0  0  0
  142.1320  154.8740  134.5220 C   0  0  0  0  0  0  0  0  0  0  0  0
  143.2620  154.6750  135.5520 C   0  0  0  0  0  0  0  0  0  0  0  0
  144.5580  155.2210  135.0120 C   0  0  0  0  0  0  0  0  0  0  0  0
  145.7430  154.4490  135.0930 C   0  0  0  0  0  0  0  0  0  0  0  0
  146.9620  154.9570  134.6130 C   0  0  0  0  0  0  0  0  0  0  0  0
  146.9680  156.2430  134.0790 C   0  0  0  0  0  0  0  0  0  0  0  0
  147.9990  156.9660  133.5250 C   0  0  0  0  0  0  0  0  0  0  0  0
  147.4360  158.1850  133.1510 C   0  0  0  0  0  0  0  0  0  0  0  0
  148.2210  159.3000  132.5820 C   0  0  0  0  0  0  0  0  0  0  0  0
  147.6450  160.1960  131.6350 N   0  0  0  0  0  0  0  0  0  0  0  0
  149.4050  159.4920  132.9690 O   0  0  0  0  0  0  0  0  0  0  0  0
  146.1070  158.2110  133.4550 N   0  0  0  0  0  0  0  0  0  0  0  0
  145.1570  159.2480  133.1590 C   0  0  0  0  0  0  0  0  0  0  0  0
  145.4490  160.6040  133.4880 N   0  0  0  0  0  0  0  0  0  0  0  0
  144.0570  158.9620  132.6160 O   0  0  0  0  0  0  0  0  0  0  0  0
  145.8360  157.0150  134.0230 C   0  0  0  0  0  0  0  0  0  0  0  0
  144.6050  156.5270  134.4740 C   0  0  0  0  0  0  0  0  0  0  0  0
  140.1750  156.2110  133.8100 C   0  0  0  0  0  0  0  0  0  0  0  0
  139.3770  157.5120  134.0530 C   0  0  0  0  0  0  0  0  0  0  0  0
  142.0687  159.1948  136.2677 H   0  0  0  0  0  0  0  0  0  0  0  0
  143.3692  158.7405  135.1150 H   0  0  0  0  0  0  0  0  0  0  0  0
  142.7129  160.4126  135.1150 H   0  0  0  0  0  0  0  0  0  0  0  0
  141.0371  160.9970  133.9118 H   0  0  0  0  0  0  0  0  0  0  0  0
  142.1086  160.2157  132.7002 H   0  0  0  0  0  0  0  0  0  0  0  0
  140.3469  159.8646  132.7002 H   0  0  0  0  0  0  0  0  0  0  0  0
  139.6048  159.4548  135.0578 H   0  0  0  0  0  0  0  0  0  0  0  0
  141.1313  158.4169  136.8651 H   0  0  0  0  0  0  0  0  0  0  0  0
  139.4469  157.7288  136.7912 H   0  0  0  0  0  0  0  0  0  0  0  0
  141.8926  156.2909  136.7422 H   0  0  0  0  0  0  0  0  0  0  0  0
  140.2217  155.6673  136.4378 H   0  0  0  0  0  0  0  0  0  0  0  0
  141.4494  154.0140  134.5894 H   0  0  0  0  0  0  0  0  0  0  0  0
  142.6155  154.9610  133.5378 H   0  0  0  0  0  0  0  0  0  0  0  0
  143.0040  155.2035  136.4816 H   0  0  0  0  0  0  0  0  0  0  0  0
  143.3805  153.6000  135.7527 H   0  0  0  0  0  0  0  0  0  0  0  0
  145.7086  153.4426  135.5357 H   0  0  0  0  0  0  0  0  0  0  0  0
  147.8831  154.3573  134.6577 H   0  0  0  0  0  0  0  0  0  0  0  0
  149.0454  156.6494  133.4031 H   0  0  0  0  0  0  0  0  0  0  0  0
  146.6450  160.4880  131.7110 H   0  0  0  0  0  0  0  0  0  0  0  0
  146.1920  161.1310  132.9780 H   0  0  0  0  0  0  0  0  0  0  0  0
  143.6966  157.1442  134.4115 H   0  0  0  0  0  0  0  0  0  0  0  0
  140.5294  156.1991  132.7687 H   0  0  0  0  0  0  0  0  0  0  0  0
  139.5099  155.3577  134.0090 H   0  0  0  0  0  0  0  0  0  0  0  0
  139.1501  157.9769  133.0822 H   0  0  0  0  0  0  0  0  0  0  0  0
  138.4545  157.2510  134.5923 H   0  0  0  0  0  0  0  0  0  0  0  0
  1  2  1  0
  2  3  1  0
  2  4  1  0
  4  5  1  0
  5  6  1  0
  6  7  1  0
  7  8  1  0
  8  9  1  0
  9 10  1  0
 10 11  2  0
 11 12  1  0
 12 13  2  0
 13 14  1  0
 14 15  2  0
 15 16  1  0
 16 17  1  0
 16 18  2  0
 15 19  1  0
 19 20  1  0
 20 21  1  0
 20 22  2  0
 19 23  1  0
 23 24  2  0
  7 25  1  0
 25 26  1  0
 26  4  1  0
 24 10  1  0
 23 13  1  0
  1 27  1  0
  1 28  1  0
  1 29  1  0
  3 30  1  0
  3 31  1  0
  3 32  1  0
  4 33  1  0
  5 34  1  0
  5 35  1  0
  6 36  1  0
  6 37  1  0
  8 38  1  0
  8 39  1  0
  9 40  1  0
  9 41  1  0
 11 42  1  0
 12 43  1  0
 14 44  1  0
 17 45  1  0
 21 46  1  0
 24 47  1  0
 25 48  1  0
 25 49  1  0
 26 50  1  0
 26 51  1  0
M  CHG  2  17  -1  21  -1
M  END
>  <UniqueID>  (59) 
59

>  <SMILES>  (59) 
CN(C)C1CCN(CCc2ccc3cc(C([NH-])=O)n(C([NH-])=O)c3c2)CC1

>  <Energy>  (59) 
106.03284762827433

>  <Genealogy>  (59) 
CN(C)C1CCN(CCc2ccc3cc(C([NH-])=O)n(C([NH-])=O)c3c2)CC1 (protonated)
CN(C)C1CCN(CCc2ccc3cc(C([NH-])=O)n(C([NH-])=O)c3c2)CC1 (3D coordinates assigned)
CN(C)C1CCN(CCc2ccc3cc(C([NH-])=O)n(C([NH-])=O)c3c2)CC1 (nonaromatic ring conformer: 106.03284762827433 kcal/mol)

>  <smiles>  (59) 
CN(C)C1CCN(CCc2ccc3cc(C(N)=O)n(C(N)=O)c3c2)CC1

>  <score_type>  (59) 
oracle

>  <origin>  (59) 
adg

>  <m_score__min__energy>  (59) 
-8.1600000000000001

>  <m_primary>  (59) 
energy

$$$$
59:0
     RDKit          3D

 47 49  0  0  0  0  0  0  0  0999 V2000
  139.1410  147.0170  130.0320 C   0  0  0  0  0  0  0  0  0  0  0  0
  139.3900  148.4500  130.2470 N   0  0  0  0  0  0  0  0  0  0  0  0
  140.8450  148.7360  130.3570 C   0  0  0  0  0  0  0  0  0  0  0  0
  141.3160  148.8660  131.8130 C   0  0  0  0  0  0  0  0  0  0  0  0
  140.5650  149.9990  132.5540 C   0  0  0  0  0  0  0  0  0  0  0  0
  141.3560  151.2370  132.5410 N   0  0  0  0  0  0  0  0  0  0  0  0
  141.7200  151.9230  133.7500 C   0  0  0  0  0  0  0  0  0  0  0  0
  141.3270  151.4960  134.8700 O   0  0  0  0  0  0  0  0  0  0  0  0
  142.5290  153.1810  133.6840 C   0  0  0  0  0  0  0  0  0  0  0  0
  141.6360  154.3570  133.4070 C   0  0  0  0  0  0  0  0  0  0  0  0
  140.2490  154.1640  133.1920 C   0  0  0  0  0  0  0  0  0  0  0  0
  139.3990  155.2600  132.9720 C   0  0  0  0  0  0  0  0  0  0  0  0
  139.9610  156.5330  132.9710 C   0  0  0  0  0  0  0  0  0  0  0  0
  139.3660  157.7630  132.8150 C   0  0  0  0  0  0  0  0  0  0  0  0
  140.4000  158.6920  132.9250 C   0  0  0  0  0  0  0  0  0  0  0  0
  140.2100  160.1450  132.7380 C   0  0  0  0  0  0  0  0  0  0  0  0
  139.1430  160.6490  131.9400 N   0  0  0  0  0  0  0  0  0  0  0  0
  140.9720  160.9550  133.3300 O   0  0  0  0  0  0  0  0  0  0  0  0
  141.5880  158.0600  133.1490 N   0  0  0  0  0  0  0  0  0  0  0  0
  142.8680  158.6600  133.4060 C   0  0  0  0  0  0  0  0  0  0  0  0
  143.0390  159.5410  134.5120 N   0  0  0  0  0  0  0  0  0  0  0  0
  143.8430  158.4220  132.6420 O   0  0  0  0  0  0  0  0  0  0  0  0
  141.3030  156.7380  133.1720 C   0  0  0  0  0  0  0  0  0  0  0  0
  142.1690  155.6660  133.4150 C   0  0  0  0  0  0  0  0  0  0  0  0
  139.1590  150.2460  131.9600 C   0  0  0  0  0  0  0  0  0  0  0  0
  138.5800  148.9510  131.3840 C   0  0  0  0  0  0  0  0  0  0  0  0
  139.0530  146.5102  131.0043 H   0  0  0  0  0  0  0  0  0  0  0  0
  138.2070  146.8881  129.4654 H   0  0  0  0  0  0  0  0  0  0  0  0
  139.9768  146.5806  129.4654 H   0  0  0  0  0  0  0  0  0  0  0  0
  141.4017  147.9164  129.8791 H   0  0  0  0  0  0  0  0  0  0  0  0
  141.0323  149.6994  129.8603 H   0  0  0  0  0  0  0  0  0  0  0  0
  141.1321  147.9150  132.3343 H   0  0  0  0  0  0  0  0  0  0  0  0
  142.3888  149.1092  131.8080 H   0  0  0  0  0  0  0  0  0  0  0  0
  140.4285  149.6754  133.5964 H   0  0  0  0  0  0  0  0  0  0  0  0
  141.6310  151.6690  131.6320 H   0  0  0  0  0  0  0  0  0  0  0  0
  143.0433  153.3333  134.6444 H   0  0  0  0  0  0  0  0  0  0  0  0
  143.2671  153.0915  132.8734 H   0  0  0  0  0  0  0  0  0  0  0  0
  139.8337  153.1454  133.1975 H   0  0  0  0  0  0  0  0  0  0  0  0
  138.3212  155.1165  132.8055 H   0  0  0  0  0  0  0  0  0  0  0  0
  138.2999  157.9701  132.6404 H   0  0  0  0  0  0  0  0  0  0  0  0
  138.3830  161.2280  132.3620 H   0  0  0  0  0  0  0  0  0  0  0  0
  142.2490  160.1300  134.8570 H   0  0  0  0  0  0  0  0  0  0  0  0
  143.2383  155.8379  133.6075 H   0  0  0  0  0  0  0  0  0  0  0  0
  138.4927  150.6186  132.7520 H   0  0  0  0  0  0  0  0  0  0  0  0
  139.2418  150.9870  131.1512 H   0  0  0  0  0  0  0  0  0  0  0  0
  138.5615  148.1857  132.1739 H   0  0  0  0  0  0  0  0  0  0  0  0
  137.5644  149.1610  131.0172 H   0  0  0  0  0  0  0  0  0  0  0  0
  1  2  1  0
  2  3  1  0
  3  4  1  0
  4  5  1  0
  5  6  1  0
  6  7  1  0
  7  8  2  0
  7  9  1  0
  9 10  1  0
 10 11  2  0
 11 12  1  0
 12 13  2  0
 13 14  1  0
 14 15  2  0
 15 16  1  0
 16 17  1  0
 16 18  2  0
 15 19  1  0
 19 20  1  0
 20 21  1  0
 20 22  2  0
 19 23  1  0
 23 24  2  0
  5 25  1  0
 25 26  1  0
 26  2  1  0
 24 10  1  0
 23 13  1  0
  1 27  1  0
  1 28  1  0
  1 29  1  0
  3 30  1  0
  3 31  1  0
  4 32  1  0
  4 33  1  0
  5 34  1  0
  6 35  1  0
  9 36  1  0
  9 37  1  0
 11 38  1  0
 12 39  1  0
 14 40  1  0
 17 41  1  0
 21 42  1  0
 24 43  1  0
 25 44  1  0
 25 45  1  0
 26 46  1  0
 26 47  1  0
M  CHG  2  17  -1  21  -1
M  END
>  <UniqueID>  (60) 
60

>  <SMILES>  (60) 
CN1CCC(NC(=O)Cc2ccc3cc(C([NH-])=O)n(C([NH-])=O)c3c2)CC1

>  <Energy>  (60) 
91.2241227953048

>  <Genealogy>  (60) 
CN1CCC(NC(=O)Cc2ccc3cc(C([NH-])=O)n(C([NH-])=O)c3c2)CC1 (protonated)
CN1CCC(NC(=O)Cc2ccc3cc(C([NH-])=O)n(C([NH-])=O)c3c2)CC1 (3D coordinates assigned)
CN1CCC(NC(=O)Cc2ccc3cc(C([NH-])=O)n(C([NH-])=O)c3c2)CC1 (nonaromatic ring conformer: 91.2241227953048 kcal/mol)

>  <smiles>  (60) 
CN1CCC(NC(=O)Cc2ccc3cc(C(N)=O)n(C(N)=O)c3c2)CC1

>  <score_type>  (60) 
oracle

>  <origin>  (60) 
adg

>  <m_score__min__energy>  (60) 
-9.2899999999999991

>  <m_primary>  (60) 
energy

$$$$
60:0
     RDKit          3D

 31 33  0  0  0  0  0  0  0  0999 V2000
  145.8230  155.6290  134.6570 C   0  0  0  0  0  0  0  0  0  0  0  0
  146.0360  156.4700  133.4380 C   0  0  0  0  0  0  0  0  0  0  0  0
  146.3330  155.9080  132.3490 O   0  0  0  0  0  0  0  0  0  0  0  0
  145.9260  157.9020  133.4950 N   0  0  0  0  0  0  0  0  0  0  0  0
  146.8870  158.8120  133.1690 C   0  0  0  0  0  0  0  0  0  0  0  0
  148.2900  158.5010  132.8250 C   0  0  0  0  0  0  0  0  0  0  0  0
  148.6140  157.5030  131.8560 N   0  0  0  0  0  0  0  0  0  0  0  0
  149.2200  159.0950  133.4320 O   0  0  0  0  0  0  0  0  0  0  0  0
  146.3760  160.1050  133.2190 C   0  0  0  0  0  0  0  0  0  0  0  0
  145.0610  159.9620  133.5940 C   0  0  0  0  0  0  0  0  0  0  0  0
  144.0720  160.9230  133.7710 C   0  0  0  0  0  0  0  0  0  0  0  0
  142.7800  160.4880  134.1110 C   0  0  0  0  0  0  0  0  0  0  0  0
  142.4910  159.1050  134.2530 C   0  0  0  0  0  0  0  0  0  0  0  0
  141.1180  158.6540  134.5950 C   0  0  0  0  0  0  0  0  0  0  0  0
  140.1300  158.2070  133.7360 C   0  0  0  0  0  0  0  0  0  0  0  0
  139.0330  157.8950  134.4520 N   0  0  0  0  0  0  0  0  0  0  0  0
  139.3080  158.1340  135.7000 O   0  0  0  0  0  0  0  0  0  0  0  0
  140.5320  158.5870  135.8460 C   0  0  0  0  0  0  0  0  0  0  0  0
  143.5270  158.1590  134.0580 C   0  0  0  0  0  0  0  0  0  0  0  0
  144.8100  158.6230  133.7490 C   0  0  0  0  0  0  0  0  0  0  0  0
  145.9782  156.2420  135.5571 H   0  0  0  0  0  0  0  0  0  0  0  0
  144.7964  155.2339  134.6551 H   0  0  0  0  0  0  0  0  0  0  0  0
  146.5377  154.7928  134.6551 H   0  0  0  0  0  0  0  0  0  0  0  0
  147.8840  156.8620  131.4750 H   0  0  0  0  0  0  0  0  0  0  0  0
  149.6100  157.3370  131.5890 H   0  0  0  0  0  0  0  0  0  0  0  0
  146.9103  161.0422  133.0042 H   0  0  0  0  0  0  0  0  0  0  0  0
  144.2947  161.9932  133.6484 H   0  0  0  0  0  0  0  0  0  0  0  0
  141.9820  161.2284  134.2692 H   0  0  0  0  0  0  0  0  0  0  0  0
  140.2252  158.1203  132.6436 H   0  0  0  0  0  0  0  0  0  0  0  0
  141.0083  158.8649  136.7978 H   0  0  0  0  0  0  0  0  0  0  0  0
  143.3267  157.0811  134.1477 H   0  0  0  0  0  0  0  0  0  0  0  0
  1  2  1  0
  2  3  2  0
  2  4  1  0
  4  5  1  0
  5  6  1  0
  6  7  1  0
  6  8  2  0
  5  9  2  0
  9 10  1  0
 10 11  2  0
 11 12  1  0
 12 13  2  0
 13 14  1  0
 14 15  1  0
 15 16  2  0
 16 17  1  0
 17 18  1  0
 13 19  1  0
 19 20  2  0
 20  4  1  0
 20 10  1  0
 18 14  2  0
  1 21  1  0
  1 22  1  0
  1 23  1  0
  7 24  1  0
  7 25  1  0
  9 26  1  0
 11 27  1  0
 12 28  1  0
 15 29  1  0
 18 30  1  0
 19 31  1  0
M  END
>  <UniqueID>  (61) 
61

>  <SMILES>  (61) 
CC(=O)n1c(C(N)=O)cc2ccc(-c3cnoc3)cc21

>  <Energy>  (61) 
105.27451444937466

>  <Genealogy>  (61) 
CC(=O)n1c(C(N)=O)cc2ccc(-c3cnoc3)cc21 (3D coordinates assigned)
CC(=O)n1c(C(N)=O)cc2ccc(-c3cnoc3)cc21 (optimized conformer: 105.27451444937466 kcal/mol)

>  <smiles>  (61) 
CC(=O)n1c(C(N)=O)cc2ccc(-c3cnoc3)cc21

>  <score_type>  (61) 
oracle

>  <origin>  (61) 
adg

>  <m_score__min__energy>  (61) 
-6.7300000000000004

>  <m_primary>  (61) 
energy

$$$$
61:0
     RDKit          3D

 56 60  0  0  0  0  0  0  0  0999 V2000
  144.1130  152.0210  132.8730 C   0  0  0  0  0  0  0  0  0  0  0  0
  142.7240  152.5400  133.0150 C   0  0  0  0  0  0  0  0  0  0  0  0
  142.4210  153.8390  133.1950 N   0  0  0  0  0  0  0  0  0  0  0  0
  141.0730  153.7920  133.2320 C   0  0  0  0  0  0  0  0  0  0  0  0
  140.2130  154.9790  133.3600 C   0  0  0  0  0  0  0  0  0  0  0  0
  139.0720  154.9700  132.8220 O   0  0  0  0  0  0  0  0  0  0  0  0
  140.6780  156.1700  134.0140 N   0  0  0  0  0  0  0  0  0  0  0  0
  141.2990  156.1130  135.3470 C   0  0  0  0  0  0  0  0  0  0  0  0
  142.6130  156.9070  135.3430 C   0  0  0  0  0  0  0  0  0  0  0  0
  142.4840  158.1510  134.5660 N   0  0  0  0  0  0  0  0  0  0  0  0
  143.6720  158.8100  134.0960 C   0  0  0  0  0  0  0  0  0  0  0  0
  143.7680  160.2240  134.1280 C   0  0  0  0  0  0  0  0  0  0  0  0
  144.9450  160.8720  133.7130 C   0  0  0  0  0  0  0  0  0  0  0  0
  146.0070  160.0830  133.2800 C   0  0  0  0  0  0  0  0  0  0  0  0
  147.2760  160.4390  132.8780 C   0  0  0  0  0  0  0  0  0  0  0  0
  147.9300  159.2370  132.6100 C   0  0  0  0  0  0  0  0  0  0  0  0
  149.3110  159.1490  132.0940 C   0  0  0  0  0  0  0  0  0  0  0  0
  149.8800  160.2560  131.4000 N   0  0  0  0  0  0  0  0  0  0  0  0
  149.9860  158.0940  132.2330 O   0  0  0  0  0  0  0  0  0  0  0  0
  147.0970  158.1830  132.8320 N   0  0  0  0  0  0  0  0  0  0  0  0
  147.3990  156.7830  132.7760 C   0  0  0  0  0  0  0  0  0  0  0  0
  147.0050  156.0970  131.7950 O   0  0  0  0  0  0  0  0  0  0  0  0
  148.0860  156.1560  133.8650 N   0  0  0  0  0  0  0  0  0  0  0  0
  147.4530  155.8640  135.1440 C   0  0  0  0  0  0  0  0  0  0  0  0
  146.5880  154.6060  135.0190 C   0  0  0  0  0  0  0  0  0  0  0  0
  147.1810  153.4250  134.6090 F   0  0  0  0  0  0  0  0  0  0  0  0
  145.1730  154.8060  134.5040 C   0  0  0  0  0  0  0  0  0  0  0  0
  145.4110  154.4490  135.9670 C   0  0  0  0  0  0  0  0  0  0  0  0
  145.9260  158.7160  133.2380 C   0  0  0  0  0  0  0  0  0  0  0  0
  144.7730  158.0450  133.6510 C   0  0  0  0  0  0  0  0  0  0  0  0
  141.1570  158.5990  134.1260 C   0  0  0  0  0  0  0  0  0  0  0  0
  140.4640  157.4680  133.3590 C   0  0  0  0  0  0  0  0  0  0  0  0
  140.5940  152.5430  133.0670 N   0  0  0  0  0  0  0  0  0  0  0  0
  141.6490  151.7980  132.9370 O   0  0  0  0  0  0  0  0  0  0  0  0
  144.5475  151.8586  133.8704 H   0  0  0  0  0  0  0  0  0  0  0  0
  144.0943  151.0692  132.3219 H   0  0  0  0  0  0  0  0  0  0  0  0
  144.7230  152.7519  132.3219 H   0  0  0  0  0  0  0  0  0  0  0  0
  140.6123  156.5471  136.0886 H   0  0  0  0  0  0  0  0  0  0  0  0
  141.5090  155.0646  135.6053 H   0  0  0  0  0  0  0  0  0  0  0  0
  142.8830  157.1582  136.3793 H   0  0  0  0  0  0  0  0  0  0  0  0
  143.3925  156.2860  134.8773 H   0  0  0  0  0  0  0  0  0  0  0  0
  142.9135  160.8201  134.4809 H   0  0  0  0  0  0  0  0  0  0  0  0
  145.0241  161.9690  133.7300 H   0  0  0  0  0  0  0  0  0  0  0  0
  147.6861  161.4557  132.7877 H   0  0  0  0  0  0  0  0  0  0  0  0
  150.8910  160.4950  131.5070 H   0  0  0  0  0  0  0  0  0  0  0  0
  148.2287  155.6996  135.9064 H   0  0  0  0  0  0  0  0  0  0  0  0
  146.8188  156.7134  135.4380 H   0  0  0  0  0  0  0  0  0  0  0  0
  144.8232  155.8131  134.2332 H   0  0  0  0  0  0  0  0  0  0  0  0
  144.5747  154.3786  133.6858 H   0  0  0  0  0  0  0  0  0  0  0  0
  145.2331  155.1984  136.7523 H   0  0  0  0  0  0  0  0  0  0  0  0
  145.0559  153.6571  136.6429 H   0  0  0  0  0  0  0  0  0  0  0  0
  144.7233  156.9463  133.6303 H   0  0  0  0  0  0  0  0  0  0  0  0
  140.5522  158.8710  135.0037 H   0  0  0  0  0  0  0  0  0  0  0  0
  141.2650  159.4748  133.4692 H   0  0  0  0  0  0  0  0  0  0  0  0
  139.3843  157.6737  133.3152 H   0  0  0  0  0  0  0  0  0  0  0  0
  140.8924  157.4212  132.3469 H   0  0  0  0  0  0  0  0  0  0  0  0
  1  2  1  0
  2  3  2  0
  3  4  1  0
  4  5  1  0
  5  6  2  0
  5  7  1  0
  7  8  1  0
  8  9  1  0
  9 10  1  0
 10 11  1  0
 11 12  2  0
 12 13  1  0
 13 14  2  0
 14 15  1  0
 15 16  2  0
 16 17  1  0
 17 18  1  0
 17 19  2  0
 16 20  1  0
 20 21  1  0
 21 22  2  0
 21 23  1  0
 23 24  1  0
 24 25  1  0
 25 26  1  0
 25 27  1  0
 27 28  1  0
 20 29  1  0
 29 30  2  0
 10 31  1  0
 31 32  1  0
  4 33  2  0
 33 34  1  0
 34  2  1  0
 32  7  1  0
 30 11  1  0
 29 14  1  0
 28 25  1  0
  1 35  1  0
  1 36  1  0
  1 37  1  0
  8 38  1  0
  8 39  1  0
  9 40  1  0
  9 41  1  0
 12 42  1  0
 13 43  1  0
 15 44  1  0
 18 45  1  0
 24 46  1  0
 24 47  1  0
 27 48  1  0
 27 49  1  0
 28 50  1  0
 28 51  1  0
 30 52  1  0
 31 53  1  0
 31 54  1  0
 32 55  1  0
 32 56  1  0
M  CHG  2  18  -1  23  -1
M  END
>  <UniqueID>  (62) 
62

>  <SMILES>  (62) 
Cc1nc(C(=O)N2CCN(c3ccc4cc(C([NH-])=O)n(C(=O)[N-]CC5(F)CC5)c4c3)CC2)no1

>  <Energy>  (62) 
400.9631643717116

>  <Genealogy>  (62) 
Cc1nc(C(=O)N2CCN(c3ccc4cc(C([NH-])=O)n(C(=O)[N-]CC5(F)CC5)c4c3)CC2)no1 (protonated)
Cc1nc(C(=O)N2CCN(c3ccc4cc(C([NH-])=O)n(C(=O)[N-]CC5(F)CC5)c4c3)CC2)no1 (3D coordinates assigned)
Cc1nc(C(=O)N2CCN(c3ccc4cc(C([NH-])=O)n(C(=O)[N-]CC5(F)CC5)c4c3)CC2)no1 (nonaromatic ring conformer: 400.9631643717116 kcal/mol)

>  <smiles>  (62) 
Cc1nc(C(=O)N2CCN(c3ccc4cc(C(N)=O)n(C(=O)NCC5(F)CC5)c4c3)CC2)no1

>  <score_type>  (62) 
oracle

>  <origin>  (62) 
adg

>  <m_score__min__energy>  (62) 
-9.0500000000000007

>  <m_primary>  (62) 
energy

$$$$
62:0
     RDKit          3D

 46 47  0  0  0  0  0  0  0  0999 V2000
  143.0990  157.4470  132.9700 C   0  0  0  0  0  0  0  0  0  0  0  0
  143.7900  158.3200  133.9680 C   0  0  0  0  0  0  0  0  0  0  0  0
  143.1900  158.6370  135.0280 O   0  0  0  0  0  0  0  0  0  0  0  0
  145.1210  158.8070  133.7270 N   0  0  0  0  0  0  0  0  0  0  0  0
  145.5340  160.1050  133.6860 C   0  0  0  0  0  0  0  0  0  0  0  0
  144.7000  161.2870  133.9910 C   0  0  0  0  0  0  0  0  0  0  0  0
  143.3010  161.2560  133.7200 N   0  0  0  0  0  0  0  0  0  0  0  0
  145.2130  162.3330  134.4660 O   0  0  0  0  0  0  0  0  0  0  0  0
  146.8900  160.1750  133.3710 C   0  0  0  0  0  0  0  0  0  0  0  0
  147.2960  158.8690  133.2170 C   0  0  0  0  0  0  0  0  0  0  0  0
  148.5430  158.3540  132.8840 C   0  0  0  0  0  0  0  0  0  0  0  0
  148.6710  156.9610  132.7590 C   0  0  0  0  0  0  0  0  0  0  0  0
  147.5500  156.1070  132.9540 C   0  0  0  0  0  0  0  0  0  0  0  0
  147.6410  154.6760  132.8020 N   0  0  0  0  0  0  0  0  0  0  0  0
  147.8820  153.7200  133.8850 C   0  0  0  0  0  0  0  0  0  0  0  0
  147.7230  154.3820  135.2580 C   0  0  0  0  0  0  0  0  0  0  0  0
  147.1970  153.4100  136.2480 N   0  0  0  0  0  0  0  0  0  0  0  0
  145.8240  153.7430  136.6710 C   0  0  0  0  0  0  0  0  0  0  0  0
  148.0880  153.1190  137.4050 C   0  0  0  0  0  0  0  0  0  0  0  0
  148.9940  151.9150  137.1140 C   0  0  0  0  0  0  0  0  0  0  0  0
  148.9150  154.3320  137.8790 C   0  0  0  0  0  0  0  0  0  0  0  0
  146.3030  156.6750  133.2980 C   0  0  0  0  0  0  0  0  0  0  0  0
  146.2100  158.0630  133.4350 C   0  0  0  0  0  0  0  0  0  0  0  0
  142.4999  156.6901  133.4975 H   0  0  0  0  0  0  0  0  0  0  0  0
  142.4401  158.0617  132.3391 H   0  0  0  0  0  0  0  0  0  0  0  0
  143.8486  156.9469  132.3391 H   0  0  0  0  0  0  0  0  0  0  0  0
  142.6820  160.5460  134.1740 H   0  0  0  0  0  0  0  0  0  0  0  0
  147.5048  161.0813  133.2675 H   0  0  0  0  0  0  0  0  0  0  0  0
  149.4049  159.0182  132.7230 H   0  0  0  0  0  0  0  0  0  0  0  0
  149.6492  156.5253  132.5075 H   0  0  0  0  0  0  0  0  0  0  0  0
  147.5810  154.2800  131.8360 H   0  0  0  0  0  0  0  0  0  0  0  0
  147.1613  152.8934  133.8002 H   0  0  0  0  0  0  0  0  0  0  0  0
  148.9133  153.3479  133.7964 H   0  0  0  0  0  0  0  0  0  0  0  0
  148.7024  154.7499  135.5976 H   0  0  0  0  0  0  0  0  0  0  0  0
  147.0130  155.2174  135.1691 H   0  0  0  0  0  0  0  0  0  0  0  0
  145.7717  153.7557  137.7697 H   0  0  0  0  0  0  0  0  0  0  0  0
  145.5498  154.7337  136.2794 H   0  0  0  0  0  0  0  0  0  0  0  0
  145.1264  152.9880  136.2794 H   0  0  0  0  0  0  0  0  0  0  0  0
  147.4184  152.8690  138.2411 H   0  0  0  0  0  0  0  0  0  0  0  0
  149.3287  151.4702  138.0627 H   0  0  0  0  0  0  0  0  0  0  0  0
  148.4337  151.1659  136.5353 H   0  0  0  0  0  0  0  0  0  0  0  0
  149.8690  152.2459  136.5353 H   0  0  0  0  0  0  0  0  0  0  0  0
  148.9321  154.3570  138.9786 H   0  0  0  0  0  0  0  0  0  0  0  0
  149.9434  154.2460  137.4982 H   0  0  0  0  0  0  0  0  0  0  0  0
  148.4592  155.2579  137.4982 H   0  0  0  0  0  0  0  0  0  0  0  0
  145.4212  156.0365  133.4552 H   0  0  0  0  0  0  0  0  0  0  0  0
  1  2  1  0
  2  3  2  0
  2  4  1  0
  4  5  1  0
  5  6  1  0
  6  7  1  0
  6  8  2  0
  5  9  2  0
  9 10  1  0
 10 11  2  0
 11 12  1  0
 12 13  2  0
 13 14  1  0
 14 15  1  0
 15 16  1  0
 16 17  1  0
 17 18  1  0
 17 19  1  0
 19 20  1  0
 19 21  1  0
 13 22  1  0
 22 23  2  0
 23  4  1  0
 23 10  1  0
  1 24  1  0
  1 25  1  0
  1 26  1  0
  7 27  1  0
  9 28  1  0
 11 29  1  0
 12 30  1  0
 14 31  1  0
 15 32  1  0
 15 33  1  0
 16 34  1  0
 16 35  1  0
 18 36  1  0
 18 37  1  0
 18 38  1  0
 19 39  1  0
 20 40  1  0
 20 41  1  0
 20 42  1  0
 21 43  1  0
 21 44  1  0
 21 45  1  0
 22 46  1  0
M  CHG  1   7  -1
M  END
>  <UniqueID>  (63) 
63

>  <SMILES>  (63) 
CC(=O)n1c(C([NH-])=O)cc2ccc(NCCN(C)C(C)C)cc21

>  <Energy>  (63) 
85.52189786376456

>  <Genealogy>  (63) 
CC(=O)n1c(C([NH-])=O)cc2ccc(NCCN(C)C(C)C)cc21 (protonated)
CC(=O)n1c(C([NH-])=O)cc2ccc(NCCN(C)C(C)C)cc21 (3D coordinates assigned)
CC(=O)n1c(C([NH-])=O)cc2ccc(NCCN(C)C(C)C)cc21 (optimized conformer: 85.52189786376456 kcal/mol)

>  <smiles>  (63) 
CC(=O)n1c(C(N)=O)cc2ccc(NCCN(C)C(C)C)cc21

>  <score_type>  (63) 
oracle

>  <origin>  (63) 
adg

>  <m_score__min__energy>  (63) 
-7.3899999999999997

>  <m_primary>  (63) 
energy

$$$$
63:0
     RDKit          3D

 35 37  0  0  0  0  0  0  0  0999 V2000
  143.0990  161.2100  133.7570 N   0  0  0  0  0  0  0  0  0  0  0  0
  144.5130  161.3980  133.8020 C   0  0  0  0  0  0  0  0  0  0  0  0
  144.9770  162.5300  134.1040 O   0  0  0  0  0  0  0  0  0  0  0  0
  145.4420  160.2750  133.5670 C   0  0  0  0  0  0  0  0  0  0  0  0
  146.8080  160.4420  133.3640 C   0  0  0  0  0  0  0  0  0  0  0  0
  147.3160  159.1690  133.2480 C   0  0  0  0  0  0  0  0  0  0  0  0
  148.6230  158.7480  133.0230 C   0  0  0  0  0  0  0  0  0  0  0  0
  148.8600  157.3690  132.9090 C   0  0  0  0  0  0  0  0  0  0  0  0
  147.7940  156.4370  133.0120 C   0  0  0  0  0  0  0  0  0  0  0  0
  148.0550  154.9820  132.8730 C   0  0  0  0  0  0  0  0  0  0  0  0
  149.3500  154.5110  132.5930 C   0  0  0  0  0  0  0  0  0  0  0  0
  149.5960  153.1410  132.4620 C   0  0  0  0  0  0  0  0  0  0  0  0
  148.5490  152.2140  132.5900 C   0  0  0  0  0  0  0  0  0  0  0  0
  148.8230  150.7340  132.4990 C   0  0  0  0  0  0  0  0  0  0  0  0
  149.3380  150.2580  133.6940 F   0  0  0  0  0  0  0  0  0  0  0  0
  149.7410  150.4670  131.4980 F   0  0  0  0  0  0  0  0  0  0  0  0
  147.6450  150.0680  132.2190 F   0  0  0  0  0  0  0  0  0  0  0  0
  147.2600  152.6800  132.8970 C   0  0  0  0  0  0  0  0  0  0  0  0
  147.0140  154.0500  133.0280 C   0  0  0  0  0  0  0  0  0  0  0  0
  146.4790  156.9080  133.2390 C   0  0  0  0  0  0  0  0  0  0  0  0
  146.2740  158.2860  133.3710 C   0  0  0  0  0  0  0  0  0  0  0  0
  145.1120  158.9510  133.5650 N   0  0  0  0  0  0  0  0  0  0  0  0
  143.7950  158.3790  133.6290 C   0  0  0  0  0  0  0  0  0  0  0  0
  143.2880  157.8360  132.6130 O   0  0  0  0  0  0  0  0  0  0  0  0
  143.0670  158.4180  134.8110 O   0  0  0  0  0  0  0  0  0  0  0  0
  142.4580  162.0230  133.8880 H   0  0  0  0  0  0  0  0  0  0  0  0
  142.6830  160.2550  133.6810 H   0  0  0  0  0  0  0  0  0  0  0  0
  147.3634  161.3898  133.3082 H   0  0  0  0  0  0  0  0  0  0  0  0
  149.4454  159.4735  132.9371 H   0  0  0  0  0  0  0  0  0  0  0  0
  149.8842  157.0061  132.7378 H   0  0  0  0  0  0  0  0  0  0  0  0
  150.1769  155.2269  132.4760 H   0  0  0  0  0  0  0  0  0  0  0  0
  150.6170  152.7867  132.2572 H   0  0  0  0  0  0  0  0  0  0  0  0
  146.4383  151.9619  133.0353 H   0  0  0  0  0  0  0  0  0  0  0  0
  145.9967  154.4019  133.2544 H   0  0  0  0  0  0  0  0  0  0  0  0
  145.6355  156.2055  133.3102 H   0  0  0  0  0  0  0  0  0  0  0  0
  1  2  1  0
  2  3  2  0
  2  4  1  0
  4  5  2  0
  5  6  1  0
  6  7  2  0
  7  8  1  0
  8  9  2  0
  9 10  1  0
 10 11  2  0
 11 12  1  0
 12 13  2  0
 13 14  1  0
 14 15  1  0
 14 16  1  0
 14 17  1  0
 13 18  1  0
 18 19  2  0
  9 20  1  0
 20 21  2  0
 21 22  1  0
 22 23  1  0
 23 24  2  0
 23 25  1  0
 22  4  1  0
 21  6  1  0
 19 10  1  0
  1 26  1  0
  1 27  1  0
  5 28  1  0
  7 29  1  0
  8 30  1  0
 11 31  1  0
 12 32  1  0
 18 33  1  0
 19 34  1  0
 20 35  1  0
M  CHG  1  25  -1
M  END
>  <UniqueID>  (64) 
64

>  <SMILES>  (64) 
NC(=O)c1cc2ccc(-c3ccc(C(F)(F)F)cc3)cc2n1C(=O)[O-]

>  <Energy>  (64) 
83.78045749860821

>  <Genealogy>  (64) 
NC(=O)c1cc2ccc(-c3ccc(C(F)(F)F)cc3)cc2n1C(=O)[O-] (protonated)
NC(=O)c1cc2ccc(-c3ccc(C(F)(F)F)cc3)cc2n1C(=O)[O-] (3D coordinates assigned)
NC(=O)c1cc2ccc(-c3ccc(C(F)(F)F)cc3)cc2n1C(=O)[O-] (optimized conformer: 83.78045749860821 kcal/mol)

>  <smiles>  (64) 
NC(=O)c1cc2ccc(-c3ccc(C(F)(F)F)cc3)cc2n1C(=O)O

>  <score_type>  (64) 
oracle

>  <origin>  (64) 
adg

>  <m_score__min__energy>  (64) 
-7.3700000000000001

>  <m_primary>  (64) 
energy

$$$$
64:0
     RDKit          3D

 44 45  0  0  0  0  0  0  0  0999 V2000
  149.3950  151.3580  136.3330 C   0  0  0  0  0  0  0  0  0  0  0  0
  148.4690  151.3200  137.3960 O   0  0  0  0  0  0  0  0  0  0  0  0
  148.6820  152.4090  138.2750 C   0  0  0  0  0  0  0  0  0  0  0  0
  148.1000  153.6940  137.6800 C   0  0  0  0  0  0  0  0  0  0  0  0
  147.1750  153.3870  136.6530 O   0  0  0  0  0  0  0  0  0  0  0  0
  147.5390  153.9990  135.4300 C   0  0  0  0  0  0  0  0  0  0  0  0
  146.3060  154.2350  134.5410 C   0  0  0  0  0  0  0  0  0  0  0  0
  146.6280  154.2500  133.0350 C   0  0  0  0  0  0  0  0  0  0  0  0
  147.8780  155.0650  132.6580 C   0  0  0  0  0  0  0  0  0  0  0  0
  147.6960  156.5460  132.8830 C   0  0  0  0  0  0  0  0  0  0  0  0
  148.8140  157.4170  132.8440 C   0  0  0  0  0  0  0  0  0  0  0  0
  148.6560  158.7970  133.0490 C   0  0  0  0  0  0  0  0  0  0  0  0
  147.3740  159.2780  133.2930 C   0  0  0  0  0  0  0  0  0  0  0  0
  146.9440  160.5580  133.5520 C   0  0  0  0  0  0  0  0  0  0  0  0
  145.5660  160.4560  133.7370 C   0  0  0  0  0  0  0  0  0  0  0  0
  144.6880  161.6230  133.9520 C   0  0  0  0  0  0  0  0  0  0  0  0
  143.2850  161.5390  133.7140 N   0  0  0  0  0  0  0  0  0  0  0  0
  145.1900  162.7250  134.3020 O   0  0  0  0  0  0  0  0  0  0  0  0
  145.1610  159.1610  133.6060 N   0  0  0  0  0  0  0  0  0  0  0  0
  143.8440  158.6280  133.8150 C   0  0  0  0  0  0  0  0  0  0  0  0
  143.2510  158.8060  134.9120 O   0  0  0  0  0  0  0  0  0  0  0  0
  143.1970  157.9350  132.7980 O   0  0  0  0  0  0  0  0  0  0  0  0
  146.2800  158.4520  133.3320 C   0  0  0  0  0  0  0  0  0  0  0  0
  146.4110  157.0700  133.1500 C   0  0  0  0  0  0  0  0  0  0  0  0
  150.4168  151.3999  136.7382 H   0  0  0  0  0  0  0  0  0  0  0  0
  149.2821  150.4545  135.7158 H   0  0  0  0  0  0  0  0  0  0  0  0
  149.2084  152.2492  135.7158 H   0  0  0  0  0  0  0  0  0  0  0  0
  148.1915  152.2000  139.2371 H   0  0  0  0  0  0  0  0  0  0  0  0
  149.7637  152.5419  138.4244 H   0  0  0  0  0  0  0  0  0  0  0  0
  147.5879  154.2606  138.4717 H   0  0  0  0  0  0  0  0  0  0  0  0
  148.9187  154.2937  137.2556 H   0  0  0  0  0  0  0  0  0  0  0  0
  148.0202  154.9654  135.6410 H   0  0  0  0  0  0  0  0  0  0  0  0
  148.2315  153.3308  134.8971 H   0  0  0  0  0  0  0  0  0  0  0  0
  145.5791  153.4322  134.7336 H   0  0  0  0  0  0  0  0  0  0  0  0
  145.9082  155.2282  134.7966 H   0  0  0  0  0  0  0  0  0  0  0  0
  146.7827  153.2117  132.7063 H   0  0  0  0  0  0  0  0  0  0  0  0
  145.7757  154.7360  132.5375 H   0  0  0  0  0  0  0  0  0  0  0  0
  148.7231  154.7171  133.2702 H   0  0  0  0  0  0  0  0  0  0  0  0
  148.0638  154.9119  131.5847 H   0  0  0  0  0  0  0  0  0  0  0  0
  149.8163  157.0071  132.6510 H   0  0  0  0  0  0  0  0  0  0  0  0
  149.5200  159.4771  133.0176 H   0  0  0  0  0  0  0  0  0  0  0  0
  147.5575  161.4696  133.6026 H   0  0  0  0  0  0  0  0  0  0  0  0
  142.7540  160.6700  133.9400 H   0  0  0  0  0  0  0  0  0  0  0  0
  145.5348  156.4080  133.2133 H   0  0  0  0  0  0  0  0  0  0  0  0
  1  2  1  0
  2  3  1  0
  3  4  1  0
  4  5  1  0
  5  6  1  0
  6  7  1  0
  7  8  1  0
  8  9  1  0
  9 10  1  0
 10 11  2  0
 11 12  1  0
 12 13  2  0
 13 14  1  0
 14 15  2  0
 15 16  1  0
 16 17  1  0
 16 18  2  0
 15 19  1  0
 19 20  1  0
 20 21  2  0
 20 22  1  0
 19 23  1  0
 23 24  2  0
 24 10  1  0
 23 13  1  0
  1 25  1  0
  1 26  1  0
  1 27  1  0
  3 28  1  0
  3 29  1  0
  4 30  1  0
  4 31  1  0
  6 32  1  0
  6 33  1  0
  7 34  1  0
  7 35  1  0
  8 36  1  0
  8 37  1  0
  9 38  1  0
  9 39  1  0
 11 40  1  0
 12 41  1  0
 14 42  1  0
 17 43  1  0
 24 44  1  0
M  CHG  2  17  -1  22  -1
M  END
>  <UniqueID>  (65) 
65

>  <SMILES>  (65) 
COCCOCCCCc1ccc2cc(C([NH-])=O)n(C(=O)[O-])c2c1

>  <Energy>  (65) 
82.23217706169966

>  <Genealogy>  (65) 
COCCOCCCCc1ccc2cc(C([NH-])=O)n(C(=O)[O-])c2c1 (protonated)
COCCOCCCCc1ccc2cc(C([NH-])=O)n(C(=O)[O-])c2c1 (3D coordinates assigned)
COCCOCCCCc1ccc2cc(C([NH-])=O)n(C(=O)[O-])c2c1 (optimized conformer: 82.23217706169966 kcal/mol)

>  <smiles>  (65) 
COCCOCCCCc1ccc2cc(C(N)=O)n(C(=O)O)c2c1

>  <score_type>  (65) 
oracle

>  <origin>  (65) 
adg

>  <m_score__min__energy>  (65) 
-6.3700000000000001

>  <m_primary>  (65) 
energy

$$$$
65:0
     RDKit          3D

 52 53  0  0  0  0  0  0  0  0999 V2000
  138.3310  149.0860  131.0850 C   0  0  0  0  0  0  0  0  0  0  0  0
  139.5120  149.5520  130.6720 C   0  0  0  0  0  0  0  0  0  0  0  0
  140.7070  148.6510  130.5400 C   0  0  0  0  0  0  0  0  0  0  0  0
  141.7310  149.0310  131.4580 O   0  0  0  0  0  0  0  0  0  0  0  0
  141.4880  149.8030  132.5980 C   0  0  0  0  0  0  0  0  0  0  0  0
  140.8850  149.3080  133.5910 O   0  0  0  0  0  0  0  0  0  0  0  0
  141.9370  151.1630  132.6300 N   0  0  0  0  0  0  0  0  0  0  0  0
  141.6990  152.0430  133.7720 C   0  0  0  0  0  0  0  0  0  0  0  0
  140.8640  153.2550  133.3500 C   0  0  0  0  0  0  0  0  0  0  0  0
  141.7140  154.4940  133.3140 C   0  0  0  0  0  0  0  0  0  0  0  0
  143.1040  154.4020  133.0570 C   0  0  0  0  0  0  0  0  0  0  0  0
  143.9070  155.5550  133.0470 C   0  0  0  0  0  0  0  0  0  0  0  0
  143.2980  156.7780  133.3140 C   0  0  0  0  0  0  0  0  0  0  0  0
  143.8320  158.0460  133.3550 C   0  0  0  0  0  0  0  0  0  0  0  0
  142.7670  158.8870  133.6740 C   0  0  0  0  0  0  0  0  0  0  0  0
  142.9200  160.3370  133.9100 C   0  0  0  0  0  0  0  0  0  0  0  0
  141.8470  161.2400  133.6530 N   0  0  0  0  0  0  0  0  0  0  0  0
  143.9970  160.7820  134.3890 O   0  0  0  0  0  0  0  0  0  0  0  0
  141.6180  158.1680  133.8160 N   0  0  0  0  0  0  0  0  0  0  0  0
  140.2920  158.6560  134.0730 C   0  0  0  0  0  0  0  0  0  0  0  0
  139.7380  158.4080  135.1770 O   0  0  0  0  0  0  0  0  0  0  0  0
  139.6460  159.4310  133.0970 O   0  0  0  0  0  0  0  0  0  0  0  0
  139.2010  158.9830  131.8100 C   0  0  0  0  0  0  0  0  0  0  0  0
  137.8170  159.5710  131.4790 C   0  0  0  0  0  0  0  0  0  0  0  0
  140.2260  159.3570  130.7230 C   0  0  0  0  0  0  0  0  0  0  0  0
  139.0880  157.4520  131.8790 C   0  0  0  0  0  0  0  0  0  0  0  0
  141.9600  156.8790  133.5940 C   0  0  0  0  0  0  0  0  0  0  0  0
  141.1320  155.7510  133.5890 C   0  0  0  0  0  0  0  0  0  0  0  0
  137.4714  149.7667  131.1732 H   0  0  0  0  0  0  0  0  0  0  0  0
  138.2175  148.0213  131.3371 H   0  0  0  0  0  0  0  0  0  0  0  0
  139.6123  150.6187  130.4230 H   0  0  0  0  0  0  0  0  0  0  0  0
  140.4023  147.6148  130.7481 H   0  0  0  0  0  0  0  0  0  0  0  0
  141.1014  148.7355  129.5166 H   0  0  0  0  0  0  0  0  0  0  0  0
  142.5010  151.5220  131.8270 H   0  0  0  0  0  0  0  0  0  0  0  0
  141.1597  151.4858  134.5522 H   0  0  0  0  0  0  0  0  0  0  0  0
  142.6671  152.3949  134.1579 H   0  0  0  0  0  0  0  0  0  0  0  0
  140.4446  153.0747  132.3492 H   0  0  0  0  0  0  0  0  0  0  0  0
  140.0544  153.4005  134.0803 H   0  0  0  0  0  0  0  0  0  0  0  0
  143.5588  153.4193  132.8636 H   0  0  0  0  0  0  0  0  0  0  0  0
  144.9845  155.4931  132.8346 H   0  0  0  0  0  0  0  0  0  0  0  0
  144.8779  158.3347  133.1743 H   0  0  0  0  0  0  0  0  0  0  0  0
  140.8700  161.0060  133.9370 H   0  0  0  0  0  0  0  0  0  0  0  0
  137.2822  159.7982  132.4130 H   0  0  0  0  0  0  0  0  0  0  0  0
  137.9412  160.4941  130.8938 H   0  0  0  0  0  0  0  0  0  0  0  0
  137.2388  158.8408  130.8938 H   0  0  0  0  0  0  0  0  0  0  0  0
  141.1576  159.6969  131.1989 H   0  0  0  0  0  0  0  0  0  0  0  0
  140.4341  158.4769  130.0969 H   0  0  0  0  0  0  0  0  0  0  0  0
  139.8184  160.1643  130.0969 H   0  0  0  0  0  0  0  0  0  0  0  0
  139.0645  157.1331  132.9315 H   0  0  0  0  0  0  0  0  0  0  0  0
  138.1636  157.1296  131.3774 H   0  0  0  0  0  0  0  0  0  0  0  0
  139.9550  156.9974  131.3774 H   0  0  0  0  0  0  0  0  0  0  0  0
  140.0551  155.8411  133.7941 H   0  0  0  0  0  0  0  0  0  0  0  0
  1  2  2  0
  2  3  1  0
  3  4  1  0
  4  5  1  0
  5  6  2  0
  5  7  1  0
  7  8  1  0
  8  9  1  0
  9 10  1  0
 10 11  2  0
 11 12  1  0
 12 13  2  0
 13 14  1  0
 14 15  2  0
 15 16  1  0
 16 17  1  0
 16 18  2  0
 15 19  1  0
 19 20  1  0
 20 21  2  0
 20 22  1  0
 22 23  1  0
 23 24  1  0
 23 25  1  0
 23 26  1  0
 19 27  1  0
 27 28  2  0
 28 10  1  0
 27 13  1  0
  1 29  1  0
  1 30  1  0
  2 31  1  0
  3 32  1  0
  3 33  1  0
  7 34  1  0
  8 35  1  0
  8 36  1  0
  9 37  1  0
  9 38  1  0
 11 39  1  0
 12 40  1  0
 14 41  1  0
 17 42  1  0
 24 43  1  0
 24 44  1  0
 24 45  1  0
 25 46  1  0
 25 47  1  0
 25 48  1  0
 26 49  1  0
 26 50  1  0
 26 51  1  0
 28 52  1  0
M  CHG  1  17  -1
M  END
>  <UniqueID>  (66) 
66

>  <SMILES>  (66) 
C=CCOC(=O)NCCc1ccc2cc(C([NH-])=O)n(C(=O)OC(C)(C)C)c2c1

>  <Energy>  (66) 
75.59081891841409

>  <Genealogy>  (66) 
C=CCOC(=O)NCCc1ccc2cc(C([NH-])=O)n(C(=O)OC(C)(C)C)c2c1 (protonated)
C=CCOC(=O)NCCc1ccc2cc(C([NH-])=O)n(C(=O)OC(C)(C)C)c2c1 (3D coordinates assigned)
C=CCOC(=O)NCCc1ccc2cc(C([NH-])=O)n(C(=O)OC(C)(C)C)c2c1 (optimized conformer: 75.59081891841409 kcal/mol)

>  <smiles>  (66) 
C=CCOC(=O)NCCc1ccc2cc(C(N)=O)n(C(=O)OC(C)(C)C)c2c1

>  <score_type>  (66) 
oracle

>  <origin>  (66) 
adg

>  <m_score__min__energy>  (66) 
-8.1899999999999995

>  <m_primary>  (66) 
energy

$$$$
66:0
     RDKit          3D

 65 67  0  0  0  0  0  0  0  0999 V2000
  141.0940  158.0340  133.3790 C   0  0  0  0  0  0  0  0  0  0  0  0
  139.5670  157.8730  133.4340 C   0  0  0  0  0  0  0  0  0  0  0  0
  138.9460  158.6110  132.2320 C   0  0  0  0  0  0  0  0  0  0  0  0
  139.2220  156.3710  133.3860 C   0  0  0  0  0  0  0  0  0  0  0  0
  139.1230  158.4550  134.6680 O   0  0  0  0  0  0  0  0  0  0  0  0
  139.6650  158.2170  135.9400 C   0  0  0  0  0  0  0  0  0  0  0  0
  139.3940  157.1680  136.5840 O   0  0  0  0  0  0  0  0  0  0  0  0
  140.5430  159.2570  136.5610 C   0  0  0  0  0  0  0  0  0  0  0  0
  141.8990  158.6530  136.9350 C   0  0  0  0  0  0  0  0  0  0  0  0
  141.9680  158.3390  138.4330 C   0  0  0  0  0  0  0  0  0  0  0  0
  141.5970  156.9030  138.6880 C   0  0  0  0  0  0  0  0  0  0  0  0
  141.0060  156.5280  139.9210 C   0  0  0  0  0  0  0  0  0  0  0  0
  140.6400  155.1930  140.1620 C   0  0  0  0  0  0  0  0  0  0  0  0
  140.8570  154.2640  139.1490 C   0  0  0  0  0  0  0  0  0  0  0  0
  140.6080  152.9110  139.1200 C   0  0  0  0  0  0  0  0  0  0  0  0
  141.0130  152.4860  137.8550 C   0  0  0  0  0  0  0  0  0  0  0  0
  140.8380  151.1030  137.3670 C   0  0  0  0  0  0  0  0  0  0  0  0
  140.9790  150.8180  135.9780 N   0  0  0  0  0  0  0  0  0  0  0  0
  140.6000  150.1610  138.1690 O   0  0  0  0  0  0  0  0  0  0  0  0
  141.5020  153.5360  137.1340 N   0  0  0  0  0  0  0  0  0  0  0  0
  142.0580  153.5140  135.8100 C   0  0  0  0  0  0  0  0  0  0  0  0
  143.1860  152.9860  135.6100 O   0  0  0  0  0  0  0  0  0  0  0  0
  141.3570  154.1060  134.7530 O   0  0  0  0  0  0  0  0  0  0  0  0
  141.9490  154.4280  133.4970 C   0  0  0  0  0  0  0  0  0  0  0  0
  142.1420  153.1550  132.6540 C   0  0  0  0  0  0  0  0  0  0  0  0
  141.6290  151.9480  133.3500 N   0  0  0  0  0  0  0  0  0  0  0  0
  140.2810  151.5900  132.8790 C   0  0  0  0  0  0  0  0  0  0  0  0
  140.4500  150.6320  131.7140 C   0  0  0  0  0  0  0  0  0  0  0  0
  141.7930  149.9680  131.9490 C   0  0  0  0  0  0  0  0  0  0  0  0
  142.4560  150.7550  133.0760 C   0  0  0  0  0  0  0  0  0  0  0  0
  141.3970  154.6160  137.9380 C   0  0  0  0  0  0  0  0  0  0  0  0
  141.7920  155.9350  137.6790 C   0  0  0  0  0  0  0  0  0  0  0  0
  141.4953  158.0763  134.4023 H   0  0  0  0  0  0  0  0  0  0  0  0
  141.5341  157.1773  132.8477 H   0  0  0  0  0  0  0  0  0  0  0  0
  141.3458  158.9637  132.8477 H   0  0  0  0  0  0  0  0  0  0  0  0
  138.2775  159.4055  132.5951 H   0  0  0  0  0  0  0  0  0  0  0  0
  139.7459  159.0554  131.6215 H   0  0  0  0  0  0  0  0  0  0  0  0
  138.3714  157.8988  131.6215 H   0  0  0  0  0  0  0  0  0  0  0  0
  139.1327  155.9823  134.4112 H   0  0  0  0  0  0  0  0  0  0  0  0
  138.2682  156.2306  132.8563 H   0  0  0  0  0  0  0  0  0  0  0  0
  140.0189  155.8285  132.8563 H   0  0  0  0  0  0  0  0  0  0  0  0
  140.6964  160.0774  135.8445 H   0  0  0  0  0  0  0  0  0  0  0  0
  140.0575  159.6379  137.4716 H   0  0  0  0  0  0  0  0  0  0  0  0
  142.0477  157.7235  136.3658 H   0  0  0  0  0  0  0  0  0  0  0  0
  142.6855  159.3834  136.6943 H   0  0  0  0  0  0  0  0  0  0  0  0
  142.9917  158.5180  138.7936 H   0  0  0  0  0  0  0  0  0  0  0  0
  141.2591  158.9897  138.9660 H   0  0  0  0  0  0  0  0  0  0  0  0
  140.8324  157.2891  140.6960 H   0  0  0  0  0  0  0  0  0  0  0  0
  140.1956  154.8915  141.1220 H   0  0  0  0  0  0  0  0  0  0  0  0
  140.1800  152.2949  139.9245 H   0  0  0  0  0  0  0  0  0  0  0  0
  141.6620  151.3440  135.3890 H   0  0  0  0  0  0  0  0  0  0  0  0
  141.2934  155.1257  132.9553 H   0  0  0  0  0  0  0  0  0  0  0  0
  142.9306  154.8920  133.6732 H   0  0  0  0  0  0  0  0  0  0  0  0
  141.6028  153.2732  131.7026 H   0  0  0  0  0  0  0  0  0  0  0  0
  143.2202  153.0185  132.4840 H   0  0  0  0  0  0  0  0  0  0  0  0
  141.5890  152.1280  134.3830 H   0  0  0  0  0  0  0  0  0  0  0  0
  139.7165  151.1032  133.6879 H   0  0  0  0  0  0  0  0  0  0  0  0
  139.7259  152.4873  132.5681 H   0  0  0  0  0  0  0  0  0  0  0  0
  139.6437  149.8837  131.7077 H   0  0  0  0  0  0  0  0  0  0  0  0
  140.4063  151.1475  130.7433 H   0  0  0  0  0  0  0  0  0  0  0  0
  141.6542  148.9179  132.2456 H   0  0  0  0  0  0  0  0  0  0  0  0
  142.4095  149.9692  131.0380 H   0  0  0  0  0  0  0  0  0  0  0  0
  142.5205  150.1305  133.9792 H   0  0  0  0  0  0  0  0  0  0  0  0
  143.4734  151.0550  132.7845 H   0  0  0  0  0  0  0  0  0  0  0  0
  142.2427  156.2094  136.7138 H   0  0  0  0  0  0  0  0  0  0  0  0
  1  2  1  0
  2  3  1  0
  2  4  1  0
  2  5  1  0
  5  6  1  0
  6  7  2  0
  6  8  1  0
  8  9  1  0
  9 10  1  0
 10 11  1  0
 11 12  2  0
 12 13  1  0
 13 14  2  0
 14 15  1  0
 15 16  2  0
 16 17  1  0
 17 18  1  0
 17 19  2  0
 16 20  1  0
 20 21  1  0
 21 22  2  0
 21 23  1  0
 23 24  1  0
 24 25  1  0
 25 26  1  0
 26 27  1  0
 27 28  1  0
 28 29  1  0
 29 30  1  0
 20 31  1  0
 31 32  2  0
 32 11  1  0
 31 14  1  0
 30 26  1  0
  1 33  1  0
  1 34  1  0
  1 35  1  0
  3 36  1  0
  3 37  1  0
  3 38  1  0
  4 39  1  0
  4 40  1  0
  4 41  1  0
  8 42  1  0
  8 43  1  0
  9 44  1  0
  9 45  1  0
 10 46  1  0
 10 47  1  0
 12 48  1  0
 13 49  1  0
 15 50  1  0
 18 51  1  0
 24 52  1  0
 24 53  1  0
 25 54  1  0
 25 55  1  0
 26 56  1  0
 27 57  1  0
 27 58  1  0
 28 59  1  0
 28 60  1  0
 29 61  1  0
 29 62  1  0
 30 63  1  0
 30 64  1  0
 32 65  1  0
M  CHG  2  18  -1  26   1
M  END
>  <UniqueID>  (67) 
67

>  <SMILES>  (67) 
CC(C)(C)OC(=O)CCCc1ccc2cc(C([NH-])=O)n(C(=O)OCC[NH+]3CCCC3)c2c1

>  <Energy>  (67) 
94.70290676176172

>  <Genealogy>  (67) 
CC(C)(C)OC(=O)CCCc1ccc2cc(C([NH-])=O)n(C(=O)OCC[NH+]3CCCC3)c2c1 (protonated)
CC(C)(C)OC(=O)CCCc1ccc2cc(C([NH-])=O)n(C(=O)OCC[NH+]3CCCC3)c2c1 (3D coordinates assigned)
CC(C)(C)OC(=O)CCCc1ccc2cc(C([NH-])=O)n(C(=O)OCC[NH+]3CCCC3)c2c1 (nonaromatic ring conformer: 94.70290676176172 kcal/mol)

>  <smiles>  (67) 
CC(C)(C)OC(=O)CCCc1ccc2cc(C(N)=O)n(C(=O)OCCN3CCCC3)c2c1

>  <score_type>  (67) 
oracle

>  <origin>  (67) 
adg

>  <m_score__min__energy>  (67) 
-7.9900000000000002

>  <m_primary>  (67) 
energy

$$$$
67:0
     RDKit          3D

 58 61  0  0  0  0  0  0  0  0999 V2000
  141.7440  156.9330  133.4100 C   0  0  0  0  0  0  0  0  0  0  0  0
  142.3410  158.3310  133.2960 C   0  0  0  0  0  0  0  0  0  0  0  0
  143.6430  158.2780  132.7170 O   0  0  0  0  0  0  0  0  0  0  0  0
  144.8090  158.6560  133.3940 C   0  0  0  0  0  0  0  0  0  0  0  0
  144.8520  159.7660  133.9890 O   0  0  0  0  0  0  0  0  0  0  0  0
  145.9660  157.7950  133.3750 N   0  0  0  0  0  0  0  0  0  0  0  0
  147.2780  158.1710  133.3120 C   0  0  0  0  0  0  0  0  0  0  0  0
  147.7880  159.5480  133.4090 C   0  0  0  0  0  0  0  0  0  0  0  0
  147.0630  160.6380  132.8400 N   0  0  0  0  0  0  0  0  0  0  0  0
  148.8390  159.7750  134.0650 O   0  0  0  0  0  0  0  0  0  0  0  0
  148.1040  157.0720  133.1100 C   0  0  0  0  0  0  0  0  0  0  0  0
  147.2610  155.9870  133.0790 C   0  0  0  0  0  0  0  0  0  0  0  0
  147.5540  154.6380  132.9250 C   0  0  0  0  0  0  0  0  0  0  0  0
  146.4900  153.7240  132.9500 C   0  0  0  0  0  0  0  0  0  0  0  0
  145.1560  154.1690  133.1350 C   0  0  0  0  0  0  0  0  0  0  0  0
  144.0380  153.1930  133.1790 C   0  0  0  0  0  0  0  0  0  0  0  0
  142.7660  153.5800  133.6400 C   0  0  0  0  0  0  0  0  0  0  0  0
  141.7120  152.6630  133.6650 C   0  0  0  0  0  0  0  0  0  0  0  0
  141.9070  151.3440  133.2280 C   0  0  0  0  0  0  0  0  0  0  0  0
  140.7550  150.3670  133.2300 C   0  0  0  0  0  0  0  0  0  0  0  0
  140.1430  150.1990  131.8200 C   0  0  2  0  0  0  0  0  0  0  0  0
  138.5970  150.0550  131.8560 C   0  0  0  0  0  0  0  0  0  0  0  0
  138.0810  149.2910  130.7760 O   0  0  0  0  0  0  0  0  0  0  0  0
  138.7620  149.5940  129.5760 C   0  0  0  0  0  0  0  0  0  0  0  0
  140.2340  149.1300  129.6420 C   0  0  0  0  0  0  0  0  0  0  0  0
  140.7620  149.1070  131.0280 N   0  0  0  0  0  0  0  0  0  0  0  0
  140.6020  147.7660  131.6310 C   0  0  0  0  0  0  0  0  0  0  0  0
  143.1770  150.9520  132.7810 C   0  0  0  0  0  0  0  0  0  0  0  0
  144.2310  151.8680  132.7540 C   0  0  0  0  0  0  0  0  0  0  0  0
  144.8990  155.5510  133.2890 C   0  0  0  0  0  0  0  0  0  0  0  0
  145.9770  156.4460  133.2420 C   0  0  0  0  0  0  0  0  0  0  0  0
  141.6309  156.6681  134.4716 H   0  0  0  0  0  0  0  0  0  0  0  0
  140.7592  156.9138  132.9203 H   0  0  0  0  0  0  0  0  0  0  0  0
  142.4112  156.2083  132.9203 H   0  0  0  0  0  0  0  0  0  0  0  0
  141.6894  158.9512  132.6630 H   0  0  0  0  0  0  0  0  0  0  0  0
  142.4198  158.7649  134.3038 H   0  0  0  0  0  0  0  0  0  0  0  0
  147.4320  161.6120  132.9100 H   0  0  0  0  0  0  0  0  0  0  0  0
  146.1300  160.4820  132.3960 H   0  0  0  0  0  0  0  0  0  0  0  0
  149.1984  157.0707  132.9987 H   0  0  0  0  0  0  0  0  0  0  0  0
  148.5905  154.2962  132.7874 H   0  0  0  0  0  0  0  0  0  0  0  0
  146.6926  152.6501  132.8247 H   0  0  0  0  0  0  0  0  0  0  0  0
  142.6003  154.6119  133.9832 H   0  0  0  0  0  0  0  0  0  0  0  0
  140.7229  152.9772  134.0296 H   0  0  0  0  0  0  0  0  0  0  0  0
  141.1179  149.3892  133.5796 H   0  0  0  0  0  0  0  0  0  0  0  0
  139.9740  150.7602  133.8974 H   0  0  0  0  0  0  0  0  0  0  0  0
  140.3809  151.1370  131.2969 H   0  0  0  0  0  0  0  0  0  0  0  0
  138.3135  149.5638  132.7985 H   0  0  0  0  0  0  0  0  0  0  0  0
  138.1725  151.0664  131.7731 H   0  0  0  0  0  0  0  0  0  0  0  0
  138.2613  149.0841  128.7398 H   0  0  0  0  0  0  0  0  0  0  0  0
  138.7446  150.6840  129.4290 H   0  0  0  0  0  0  0  0  0  0  0  0
  140.3032  148.1159  129.2215 H   0  0  0  0  0  0  0  0  0  0  0  0
  140.8365  149.8488  129.0673 H   0  0  0  0  0  0  0  0  0  0  0  0
  140.6124  147.8534  132.7275 H   0  0  0  0  0  0  0  0  0  0  0  0
  139.6455  147.3300  131.3070 H   0  0  0  0  0  0  0  0  0  0  0  0
  141.4291  147.1172  131.3070 H   0  0  0  0  0  0  0  0  0  0  0  0
  143.3442  149.9165  132.4495 H   0  0  0  0  0  0  0  0  0  0  0  0
  145.2212  151.5490  132.3967 H   0  0  0  0  0  0  0  0  0  0  0  0
  143.8730  155.9167  133.4427 H   0  0  0  0  0  0  0  0  0  0  0  0
  1  2  1  0
  2  3  1  0
  3  4  1  0
  4  5  2  0
  4  6  1  0
  6  7  1  0
  7  8  1  0
  8  9  1  0
  8 10  2  0
  7 11  2  0
 11 12  1  0
 12 13  2  0
 13 14  1  0
 14 15  2  0
 15 16  1  0
 16 17  2  0
 17 18  1  0
 18 19  2  0
 19 20  1  0
 20 21  1  0
 21 22  1  0
 22 23  1  0
 23 24  1  0
 24 25  1  0
 25 26  1  0
 26 27  1  0
 19 28  1  0
 28 29  2  0
 15 30  1  0
 30 31  2  0
 31  6  1  0
 31 12  1  0
 29 16  1  0
 26 21  1  0
  1 32  1  0
  1 33  1  0
  1 34  1  0
  2 35  1  0
  2 36  1  0
  9 37  1  0
  9 38  1  0
 11 39  1  0
 13 40  1  0
 14 41  1  0
 17 42  1  0
 18 43  1  0
 20 44  1  0
 20 45  1  0
 21 46  1  6
 22 47  1  0
 22 48  1  0
 24 49  1  0
 24 50  1  0
 25 51  1  0
 25 52  1  0
 27 53  1  0
 27 54  1  0
 27 55  1  0
 28 56  1  0
 29 57  1  0
 30 58  1  0
M  END
>  <UniqueID>  (68) 
68

>  <SMILES>  (68) 
CCOC(=O)n1c(C(N)=O)cc2ccc(-c3ccc(C[C@@H]4COCCN4C)cc3)cc21

>  <Energy>  (68) 
117.56500633034831

>  <Genealogy>  (68) 
CCOC(=O)n1c(C(N)=O)cc2ccc(-c3ccc(C[C@@H]4COCCN4C)cc3)cc21 (chirality)
CCOC(=O)n1c(C(N)=O)cc2ccc(-c3ccc(C[C@@H]4COCCN4C)cc3)cc21 (3D coordinates assigned)
CCOC(=O)n1c(C(N)=O)cc2ccc(-c3ccc(C[C@@H]4COCCN4C)cc3)cc21 (nonaromatic ring conformer: 117.56500633034831 kcal/mol)

>  <smiles>  (68) 
CCOC(=O)n1c(C(N)=O)cc2ccc(-c3ccc(CC4COCCN4C)cc3)cc21

>  <score_type>  (68) 
oracle

>  <origin>  (68) 
adg

>  <m_score__min__energy>  (68) 
-9.6799999999999997

>  <m_primary>  (68) 
energy

$$$$
68:0
     RDKit          3D

 31 32  0  0  0  0  0  0  0  0999 V2000
  141.5620  155.6730  139.0390 C   0  0  0  0  0  0  0  0  0  0  0  0
  141.3590  156.6690  137.9370 C   0  0  0  0  0  0  0  0  0  0  0  0
  141.4980  158.0540  138.1990 C   0  0  0  0  0  0  0  0  0  0  0  0
  141.2820  159.0000  137.1810 C   0  0  0  0  0  0  0  0  0  0  0  0
  140.9150  158.5320  135.9230 C   0  0  0  0  0  0  0  0  0  0  0  0
  140.6580  159.2200  134.7580 C   0  0  0  0  0  0  0  0  0  0  0  0
  140.3350  158.2440  133.8160 C   0  0  0  0  0  0  0  0  0  0  0  0
  139.9150  158.5500  132.4340 C   0  0  0  0  0  0  0  0  0  0  0  0
  138.7300  157.9810  131.8860 N   0  0  0  0  0  0  0  0  0  0  0  0
  140.5890  159.3580  131.7410 O   0  0  0  0  0  0  0  0  0  0  0  0
  140.4020  157.0020  134.3750 N   0  0  0  0  0  0  0  0  0  0  0  0
  140.2270  155.7270  133.7370 C   0  0  0  0  0  0  0  0  0  0  0  0
  139.0900  155.4010  133.3050 O   0  0  0  0  0  0  0  0  0  0  0  0
  141.3630  154.7540  133.6090 C   0  0  0  0  0  0  0  0  0  0  0  0
  140.8810  153.4340  133.7110 O   0  0  0  0  0  0  0  0  0  0  0  0
  141.9060  152.5640  134.7600 P   0  0  0  0  0  0  0  0  0  0  0  0
  142.9810  151.8540  133.9680 O   0  0  0  0  0  0  0  0  0  0  0  0
  142.6240  153.6110  135.8780 O   0  0  0  0  0  0  0  0  0  0  0  0
  140.9880  151.4160  135.5940 O   0  0  0  0  0  0  0  0  0  0  0  0
  140.7520  157.1960  135.6640 C   0  0  0  0  0  0  0  0  0  0  0  0
  140.9700  156.2310  136.6520 C   0  0  0  0  0  0  0  0  0  0  0  0
  141.4594  156.1764  140.0117 H   0  0  0  0  0  0  0  0  0  0  0  0
  140.8077  154.8766  138.9569 H   0  0  0  0  0  0  0  0  0  0  0  0
  142.5678  155.2353  138.9569 H   0  0  0  0  0  0  0  0  0  0  0  0
  141.7774  158.3927  139.2076 H   0  0  0  0  0  0  0  0  0  0  0  0
  141.3995  160.0767  137.3733 H   0  0  0  0  0  0  0  0  0  0  0  0
  140.6989  160.3083  134.6034 H   0  0  0  0  0  0  0  0  0  0  0  0
  138.2930  157.1350  132.3120 H   0  0  0  0  0  0  0  0  0  0  0  0
  141.8502  154.8894  132.6321 H   0  0  0  0  0  0  0  0  0  0  0  0
  142.0877  154.9370  134.4160 H   0  0  0  0  0  0  0  0  0  0  0  0
  140.8421  155.1603  136.4344 H   0  0  0  0  0  0  0  0  0  0  0  0
  1  2  1  0
  2  3  2  0
  3  4  1  0
  4  5  2  0
  5  6  1  0
  6  7  2  0
  7  8  1  0
  8  9  1  0
  8 10  2  0
  7 11  1  0
 11 12  1  0
 12 13  2  0
 12 14  1  0
 14 15  1  0
 15 16  1  0
 16 17  2  0
 16 18  1  0
 16 19  1  0
 11 20  1  0
 20 21  2  0
 21  2  1  0
 20  5  1  0
  1 22  1  0
  1 23  1  0
  1 24  1  0
  3 25  1  0
  4 26  1  0
  6 27  1  0
  9 28  1  0
 14 29  1  0
 14 30  1  0
 21 31  1  0
M  CHG  3   9  -1  18  -1  19  -1
M  END
>  <UniqueID>  (69) 
69

>  <SMILES>  (69) 
Cc1ccc2cc(C([NH-])=O)n(C(=O)COP(=O)([O-])[O-])c2c1

>  <Energy>  (69) 
69.18909479411904

>  <Genealogy>  (69) 
Cc1ccc2cc(C([NH-])=O)n(C(=O)COP(=O)([O-])[O-])c2c1 (protonated)
Cc1ccc2cc(C([NH-])=O)n(C(=O)COP(=O)([O-])[O-])c2c1 (3D coordinates assigned)
Cc1ccc2cc(C([NH-])=O)n(C(=O)COP(=O)([O-])[O-])c2c1 (optimized conformer: 69.18909479411904 kcal/mol)

>  <smiles>  (69) 
Cc1ccc2cc(C(N)=O)n(C(=O)COP(=O)(O)O)c2c1

>  <score_type>  (69) 
oracle

>  <origin>  (69) 
adg

>  <m_score__min__energy>  (69) 
-6.0999999999999996

>  <m_primary>  (69) 
energy

$$$$
69:0
     RDKit          3D

 39 41  0  0  0  0  0  0  0  0999 V2000
  141.6390  159.3450  136.3230 C   0  0  0  0  0  0  0  0  0  0  0  0
  141.0540  158.2100  135.4690 C   0  0  0  0  0  0  0  0  0  0  0  0
  142.0750  157.0850  135.1800 C   0  0  0  0  0  0  0  0  0  0  0  0
  143.3720  157.5990  134.8720 O   0  0  0  0  0  0  0  0  0  0  0  0
  143.7590  158.0550  133.6060 C   0  0  0  0  0  0  0  0  0  0  0  0
  143.0060  157.8870  132.6090 O   0  0  0  0  0  0  0  0  0  0  0  0
  145.0130  158.7380  133.4520 N   0  0  0  0  0  0  0  0  0  0  0  0
  145.2590  160.0760  133.5650 C   0  0  0  0  0  0  0  0  0  0  0  0
  144.2450  161.1350  133.7460 C   0  0  0  0  0  0  0  0  0  0  0  0
  142.8630  160.8310  133.5700 N   0  0  0  0  0  0  0  0  0  0  0  0
  144.5800  162.2980  134.0920 O   0  0  0  0  0  0  0  0  0  0  0  0
  146.6180  160.3370  133.4000 C   0  0  0  0  0  0  0  0  0  0  0  0
  147.2000  159.1120  133.1700 C   0  0  0  0  0  0  0  0  0  0  0  0
  148.5340  158.7840  132.9460 C   0  0  0  0  0  0  0  0  0  0  0  0
  148.8560  157.4290  132.7620 C   0  0  0  0  0  0  0  0  0  0  0  0
  147.8490  156.4330  132.8120 C   0  0  0  0  0  0  0  0  0  0  0  0
  148.2190  154.9880  132.6300 C   0  0  0  0  0  0  0  0  0  0  0  0
  149.5890  154.8720  132.4840 F   0  0  0  0  0  0  0  0  0  0  0  0
  147.8130  154.2620  133.7340 F   0  0  0  0  0  0  0  0  0  0  0  0
  146.5060  156.8040  133.0450 C   0  0  0  0  0  0  0  0  0  0  0  0
  146.2110  158.1640  133.2060 C   0  0  0  0  0  0  0  0  0  0  0  0
  140.2620  158.6990  134.2690 C   0  0  0  0  0  0  0  0  0  0  0  0
  139.0470  158.2090  134.7890 O   0  0  0  0  0  0  0  0  0  0  0  0
  139.6940  157.7280  135.9440 C   0  0  0  0  0  0  0  0  0  0  0  0
  141.5145  159.1034  137.3889 H   0  0  0  0  0  0  0  0  0  0  0  0
  142.7091  159.4607  136.0958 H   0  0  0  0  0  0  0  0  0  0  0  0
  141.1124  160.2836  136.0958 H   0  0  0  0  0  0  0  0  0  0  0  0
  142.1514  156.4395  136.0674 H   0  0  0  0  0  0  0  0  0  0  0  0
  141.7184  156.5221  134.3048 H   0  0  0  0  0  0  0  0  0  0  0  0
  142.5630  159.9640  133.0690 H   0  0  0  0  0  0  0  0  0  0  0  0
  147.1191  161.3153  133.4443 H   0  0  0  0  0  0  0  0  0  0  0  0
  149.3117  159.5613  132.9141 H   0  0  0  0  0  0  0  0  0  0  0  0
  149.9006  157.1380  132.5772 H   0  0  0  0  0  0  0  0  0  0  0  0
  147.7206  154.5984  131.7301 H   0  0  0  0  0  0  0  0  0  0  0  0
  145.7122  156.0444  133.0986 H   0  0  0  0  0  0  0  0  0  0  0  0
  140.2784  159.7923  134.1486 H   0  0  0  0  0  0  0  0  0  0  0  0
  140.5746  158.3877  133.2613 H   0  0  0  0  0  0  0  0  0  0  0  0
  139.3556  158.2142  136.8708 H   0  0  0  0  0  0  0  0  0  0  0  0
  139.5708  156.6710  136.2225 H   0  0  0  0  0  0  0  0  0  0  0  0
  1  2  1  0
  2  3  1  0
  3  4  1  0
  4  5  1  0
  5  6  2  0
  5  7  1  0
  7  8  1  0
  8  9  1  0
  9 10  1  0
  9 11  2  0
  8 12  2  0
 12 13  1  0
 13 14  2  0
 14 15  1  0
 15 16  2  0
 16 17  1  0
 17 18  1  0
 17 19  1  0
 16 20  1  0
 20 21  2  0
  2 22  1  0
 22 23  1  0
 23 24  1  0
 24  2  1  0
 21  7  1  0
 21 13  1  0
  1 25  1  0
  1 26  1  0
  1 27  1  0
  3 28  1  0
  3 29  1  0
 10 30  1  0
 12 31  1  0
 14 32  1  0
 15 33  1  0
 17 34  1  0
 20 35  1  0
 22 36  1  0
 22 37  1  0
 24 38  1  0
 24 39  1  0
M  CHG  1  10  -1
M  END
>  <UniqueID>  (70) 
70

>  <SMILES>  (70) 
CC1(COC(=O)n2c(C([NH-])=O)cc3ccc(C(F)F)cc32)COC1

>  <Energy>  (70) 
141.9762329395315

>  <Genealogy>  (70) 
CC1(COC(=O)n2c(C([NH-])=O)cc3ccc(C(F)F)cc32)COC1 (protonated)
CC1(COC(=O)n2c(C([NH-])=O)cc3ccc(C(F)F)cc32)COC1 (3D coordinates assigned)
CC1(COC(=O)n2c(C([NH-])=O)cc3ccc(C(F)F)cc32)COC1 (nonaromatic ring conformer: 141.9762329395315 kcal/mol)

>  <smiles>  (70) 
CC1(COC(=O)n2c(C(N)=O)cc3ccc(C(F)F)cc32)COC1

>  <score_type>  (70) 
oracle

>  <origin>  (70) 
adg

>  <m_score__min__energy>  (70) 
-6.5300000000000002

>  <m_primary>  (70) 
energy

$$$$
70:0
     RDKit          3D

 40 42  0  0  0  0  0  0  0  0999 V2000
  148.9400  158.4700  131.3540 N   0  0  0  0  0  0  0  0  0  0  0  0
  148.6260  159.0080  132.6370 C   0  0  0  0  0  0  0  0  0  0  0  0
  149.5600  159.2850  133.4350 O   0  0  0  0  0  0  0  0  0  0  0  0
  147.2130  159.1930  133.0300 C   0  0  0  0  0  0  0  0  0  0  0  0
  146.6250  160.4440  133.2070 C   0  0  0  0  0  0  0  0  0  0  0  0
  145.3000  160.1900  133.4750 C   0  0  0  0  0  0  0  0  0  0  0  0
  144.2550  161.0730  133.7360 C   0  0  0  0  0  0  0  0  0  0  0  0
  142.9870  160.5300  134.0020 C   0  0  0  0  0  0  0  0  0  0  0  0
  142.7920  159.1270  134.0220 C   0  0  0  0  0  0  0  0  0  0  0  0
  141.4230  158.5580  134.2860 C   0  0  0  0  0  0  0  0  0  0  0  0
  140.8970  157.8320  133.0300 C   0  0  0  0  0  0  0  0  0  0  0  0
  140.0180  158.6540  132.1690 N   0  0  0  0  0  0  0  0  0  0  0  0
  138.7190  158.0150  131.8760 C   0  0  0  0  0  0  0  0  0  0  0  0
  137.7830  158.9970  131.1450 C   0  0  0  0  0  0  0  0  0  0  0  0
  138.5250  160.0390  130.5440 O   0  0  0  0  0  0  0  0  0  0  0  0
  139.1130  160.8580  131.5420 C   0  0  0  0  0  0  0  0  0  0  0  0
  139.8450  160.0410  132.6290 C   0  0  0  0  0  0  0  0  0  0  0  0
  143.8740  158.2630  133.7420 C   0  0  0  0  0  0  0  0  0  0  0  0
  145.1220  158.8310  133.4610 C   0  0  0  0  0  0  0  0  0  0  0  0
  146.2870  158.2030  133.1910 N   0  0  0  0  0  0  0  0  0  0  0  0
  146.5000  156.7820  133.1510 C   0  0  0  0  0  0  0  0  0  0  0  0
  145.9720  156.0340  134.0150 O   0  0  0  0  0  0  0  0  0  0  0  0
  147.2700  156.2170  132.1420 O   0  0  0  0  0  0  0  0  0  0  0  0
  148.7090  157.4790  131.1160 H   0  0  0  0  0  0  0  0  0  0  0  0
  147.1163  161.4263  133.1454 H   0  0  0  0  0  0  0  0  0  0  0  0
  144.4174  162.1609  133.7339 H   0  0  0  0  0  0  0  0  0  0  0  0
  142.1372  161.2008  134.1967 H   0  0  0  0  0  0  0  0  0  0  0  0
  141.4809  157.8442  135.1209 H   0  0  0  0  0  0  0  0  0  0  0  0
  140.7360  159.3785  134.5407 H   0  0  0  0  0  0  0  0  0  0  0  0
  141.7621  157.5112  132.4310 H   0  0  0  0  0  0  0  0  0  0  0  0
  140.2859  156.9904  133.3881 H   0  0  0  0  0  0  0  0  0  0  0  0
  138.8854  157.1331  131.2399 H   0  0  0  0  0  0  0  0  0  0  0  0
  138.2487  157.7172  132.8248 H   0  0  0  0  0  0  0  0  0  0  0  0
  137.2266  158.4542  130.3667 H   0  0  0  0  0  0  0  0  0  0  0  0
  137.0871  159.4339  131.8763 H   0  0  0  0  0  0  0  0  0  0  0  0
  139.8370  161.5328  131.0618 H   0  0  0  0  0  0  0  0  0  0  0  0
  138.3023  161.4148  132.0347 H   0  0  0  0  0  0  0  0  0  0  0  0
  140.8311  160.4887  132.8220 H   0  0  0  0  0  0  0  0  0  0  0  0
  139.2507  160.0482  133.5546 H   0  0  0  0  0  0  0  0  0  0  0  0
  143.7391  157.1713  133.7447 H   0  0  0  0  0  0  0  0  0  0  0  0
  1  2  1  0
  2  3  2  0
  2  4  1  0
  4  5  2  0
  5  6  1  0
  6  7  2  0
  7  8  1  0
  8  9  2  0
  9 10  1  0
 10 11  1  0
 11 12  1  0
 12 13  1  0
 13 14  1  0
 14 15  1  0
 15 16  1  0
 16 17  1  0
  9 18  1  0
 18 19  2  0
 19 20  1  0
 20 21  1  0
 21 22  2  0
 21 23  1  0
 20  4  1  0
 19  6  1  0
 17 12  1  0
  1 24  1  0
  5 25  1  0
  7 26  1  0
  8 27  1  0
 10 28  1  0
 10 29  1  0
 11 30  1  0
 11 31  1  0
 13 32  1  0
 13 33  1  0
 14 34  1  0
 14 35  1  0
 16 36  1  0
 16 37  1  0
 17 38  1  0
 17 39  1  0
 18 40  1  0
M  CHG  2   1  -1  23  -1
M  END
>  <UniqueID>  (71) 
71

>  <SMILES>  (71) 
[NH-]C(=O)c1cc2ccc(CCN3CCOCC3)cc2n1C(=O)[O-]

>  <Energy>  (71) 
91.34904160742839

>  <Genealogy>  (71) 
[NH-]C(=O)c1cc2ccc(CCN3CCOCC3)cc2n1C(=O)[O-] (protonated)
[NH-]C(=O)c1cc2ccc(CCN3CCOCC3)cc2n1C(=O)[O-] (3D coordinates assigned)
[NH-]C(=O)c1cc2ccc(CCN3CCOCC3)cc2n1C(=O)[O-] (nonaromatic ring conformer: 91.34904160742839 kcal/mol)

>  <smiles>  (71) 
NC(=O)c1cc2ccc(CCN3CCOCC3)cc2n1C(=O)O

>  <score_type>  (71) 
oracle

>  <origin>  (71) 
adg

>  <m_score__min__energy>  (71) 
-7.3399999999999999

>  <m_primary>  (71) 
energy

$$$$
71:0
     RDKit          3D

 31 33  0  0  0  0  0  0  0  0999 V2000
  148.7940  157.8350  131.9250 N   0  0  0  0  0  0  0  0  0  0  0  0
  148.3410  158.5990  133.0400 C   0  0  0  0  0  0  0  0  0  0  0  0
  149.1760  158.9970  133.8950 O   0  0  0  0  0  0  0  0  0  0  0  0
  146.9040  158.8800  133.2350 C   0  0  0  0  0  0  0  0  0  0  0  0
  146.3760  160.1690  133.2800 C   0  0  0  0  0  0  0  0  0  0  0  0
  145.0410  160.0070  133.5710 C   0  0  0  0  0  0  0  0  0  0  0  0
  144.0370  160.9580  133.7250 C   0  0  0  0  0  0  0  0  0  0  0  0
  142.7370  160.5030  133.9970 C   0  0  0  0  0  0  0  0  0  0  0  0
  142.4620  159.1170  134.0950 C   0  0  0  0  0  0  0  0  0  0  0  0
  141.0890  158.6450  134.3800 C   0  0  0  0  0  0  0  0  0  0  0  0
  140.0470  158.5810  133.4750 C   0  0  0  0  0  0  0  0  0  0  0  0
  140.0680  158.9750  131.7650 Cl  0  0  0  0  0  0  0  0  0  0  0  0
  138.9820  158.0710  134.1850 C   0  0  0  0  0  0  0  0  0  0  0  0
  139.3610  157.8510  135.4600 N   0  0  0  0  0  0  0  0  0  0  0  0
  140.6320  158.2060  135.5750 N   0  0  0  0  0  0  0  0  0  0  0  0
  141.3680  158.1150  136.8320 C   0  0  0  0  0  0  0  0  0  0  0  0
  141.3600  159.3430  137.4660 F   0  0  0  0  0  0  0  0  0  0  0  0
  143.5080  158.1820  133.9380 C   0  0  0  0  0  0  0  0  0  0  0  0
  144.7970  158.6630  133.6870 C   0  0  0  0  0  0  0  0  0  0  0  0
  145.9320  157.9560  133.4810 N   0  0  0  0  0  0  0  0  0  0  0  0
  146.0490  156.5250  133.4340 C   0  0  0  0  0  0  0  0  0  0  0  0
  146.5950  155.9640  132.4470 O   0  0  0  0  0  0  0  0  0  0  0  0
  145.5870  155.7480  134.4880 O   0  0  0  0  0  0  0  0  0  0  0  0
  148.1870  157.1020  131.4940 H   0  0  0  0  0  0  0  0  0  0  0  0
  146.9128  161.1153  133.1174 H   0  0  0  0  0  0  0  0  0  0  0  0
  144.2550  162.0325  133.6364 H   0  0  0  0  0  0  0  0  0  0  0  0
  141.9236  161.2304  134.1354 H   0  0  0  0  0  0  0  0  0  0  0  0
  137.9800  157.8743  133.7759 H   0  0  0  0  0  0  0  0  0  0  0  0
  140.8920  157.3652  137.4810 H   0  0  0  0  0  0  0  0  0  0  0  0
  142.4069  157.8183  136.6254 H   0  0  0  0  0  0  0  0  0  0  0  0
  143.3139  157.1017  134.0113 H   0  0  0  0  0  0  0  0  0  0  0  0
  1  2  1  0
  2  3  2  0
  2  4  1  0
  4  5  2  0
  5  6  1  0
  6  7  2  0
  7  8  1  0
  8  9  2  0
  9 10  1  0
 10 11  2  0
 11 12  1  0
 11 13  1  0
 13 14  2  0
 14 15  1  0
 15 16  1  0
 16 17  1  0
  9 18  1  0
 18 19  2  0
 19 20  1  0
 20 21  1  0
 21 22  2  0
 21 23  1  0
 20  4  1  0
 19  6  1  0
 15 10  1  0
  1 24  1  0
  5 25  1  0
  7 26  1  0
  8 27  1  0
 13 28  1  0
 16 29  1  0
 16 30  1  0
 18 31  1  0
M  CHG  2   1  -1  23  -1
M  END
>  <UniqueID>  (72) 
72

>  <SMILES>  (72) 
[NH-]C(=O)c1cc2ccc(-c3c(Cl)cnn3CF)cc2n1C(=O)[O-]

>  <Energy>  (72) 
109.17402191719766

>  <Genealogy>  (72) 
[NH-]C(=O)c1cc2ccc(-c3c(Cl)cnn3CF)cc2n1C(=O)[O-] (protonated)
[NH-]C(=O)c1cc2ccc(-c3c(Cl)cnn3CF)cc2n1C(=O)[O-] (3D coordinates assigned)
[NH-]C(=O)c1cc2ccc(-c3c(Cl)cnn3CF)cc2n1C(=O)[O-] (optimized conformer: 109.17402191719766 kcal/mol)

>  <smiles>  (72) 
NC(=O)c1cc2ccc(-c3c(Cl)cnn3CF)cc2n1C(=O)O

>  <score_type>  (72) 
oracle

>  <origin>  (72) 
adg

>  <m_score__min__energy>  (72) 
-6.5300000000000002

>  <m_primary>  (72) 
energy

$$$$
72:0
     RDKit          3D

 32 33  0  0  0  0  0  0  0  0999 V2000
  148.8000  160.1210  130.8860 C   0  0  0  0  0  0  0  0  0  0  0  0
  149.5270  158.8140  131.1810 C   0  0  0  0  0  0  0  0  0  0  0  0
  148.7360  157.9760  132.0200 O   0  0  0  0  0  0  0  0  0  0  0  0
  148.1100  158.4230  133.1900 C   0  0  0  0  0  0  0  0  0  0  0  0
  148.7910  158.9460  134.1150 O   0  0  0  0  0  0  0  0  0  0  0  0
  146.6900  158.2690  133.3430 N   0  0  0  0  0  0  0  0  0  0  0  0
  145.9610  157.1220  133.2270 C   0  0  0  0  0  0  0  0  0  0  0  0
  146.5180  155.7620  133.0570 C   0  0  0  0  0  0  0  0  0  0  0  0
  147.3830  155.4590  131.9600 N   0  0  0  0  0  0  0  0  0  0  0  0
  146.2090  154.8460  133.8640 O   0  0  0  0  0  0  0  0  0  0  0  0
  144.6020  157.3920  133.3880 C   0  0  0  0  0  0  0  0  0  0  0  0
  144.5230  158.7470  133.6100 C   0  0  0  0  0  0  0  0  0  0  0  0
  143.4090  159.5540  133.8250 C   0  0  0  0  0  0  0  0  0  0  0  0
  143.6180  160.9320  134.0010 C   0  0  0  0  0  0  0  0  0  0  0  0
  144.9250  161.4760  133.9530 C   0  0  0  0  0  0  0  0  0  0  0  0
  145.1240  162.9540  134.1260 C   0  0  0  0  0  0  0  0  0  0  0  0
  143.9770  163.6260  133.7420 F   0  0  0  0  0  0  0  0  0  0  0  0
  145.3960  163.2370  135.4520 F   0  0  0  0  0  0  0  0  0  0  0  0
  146.0320  160.6260  133.7320 C   0  0  0  0  0  0  0  0  0  0  0  0
  145.7960  159.2540  133.5780 C   0  0  0  0  0  0  0  0  0  0  0  0
  148.5276  160.6108  131.8325 H   0  0  0  0  0  0  0  0  0  0  0  0
  149.4588  160.7843  130.3063 H   0  0  0  0  0  0  0  0  0  0  0  0
  147.8890  159.9111  130.3063 H   0  0  0  0  0  0  0  0  0  0  0  0
  149.7279  158.2909  130.2344 H   0  0  0  0  0  0  0  0  0  0  0  0
  150.4705  159.0429  131.6981 H   0  0  0  0  0  0  0  0  0  0  0  0
  147.7390  154.4880  131.8270 H   0  0  0  0  0  0  0  0  0  0  0  0
  147.7060  156.2030  131.3030 H   0  0  0  0  0  0  0  0  0  0  0  0
  143.7700  156.6736  133.3463 H   0  0  0  0  0  0  0  0  0  0  0  0
  142.3963  159.1257  133.8561 H   0  0  0  0  0  0  0  0  0  0  0  0
  142.7583  161.5950  134.1778 H   0  0  0  0  0  0  0  0  0  0  0  0
  145.9687  163.2789  133.5007 H   0  0  0  0  0  0  0  0  0  0  0  0
  147.0533  161.0316  133.6821 H   0  0  0  0  0  0  0  0  0  0  0  0
  1  2  1  0
  2  3  1  0
  3  4  1  0
  4  5  2  0
  4  6  1  0
  6  7  1  0
  7  8  1  0
  8  9  1  0
  8 10  2  0
  7 11  2  0
 11 12  1  0
 12 13  2  0
 13 14  1  0
 14 15  2  0
 15 16  1  0
 16 17  1  0
 16 18  1  0
 15 19  1  0
 19 20  2  0
 20  6  1  0
 20 12  1  0
  1 21  1  0
  1 22  1  0
  1 23  1  0
  2 24  1  0
  2 25  1  0
  9 26  1  0
  9 27  1  0
 11 28  1  0
 13 29  1  0
 14 30  1  0
 16 31  1  0
 19 32  1  0
M  END
>  <UniqueID>  (73) 
73

>  <SMILES>  (73) 
CCOC(=O)n1c(C(N)=O)cc2ccc(C(F)F)cc21

>  <Energy>  (73) 
66.43077397442465

>  <Genealogy>  (73) 
CCOC(=O)n1c(C(N)=O)cc2ccc(C(F)F)cc21 (3D coordinates assigned)
CCOC(=O)n1c(C(N)=O)cc2ccc(C(F)F)cc21 (optimized conformer: 66.43077397442465 kcal/mol)

>  <smiles>  (73) 
CCOC(=O)n1c(C(N)=O)cc2ccc(C(F)F)cc21

>  <score_type>  (73) 
oracle

>  <origin>  (73) 
adg

>  <m_score__min__energy>  (73) 
-5.9199999999999999

>  <m_primary>  (73) 
energy

$$$$
73:0
     RDKit          3D

 38 40  0  0  0  0  0  0  0  0999 V2000
  148.9820  157.4700  131.8530 N   0  0  0  0  0  0  0  0  0  0  0  0
  148.6540  158.6270  132.6260 C   0  0  0  0  0  0  0  0  0  0  0  0
  149.5780  159.4060  132.9790 O   0  0  0  0  0  0  0  0  0  0  0  0
  147.2550  158.9040  133.0260 C   0  0  0  0  0  0  0  0  0  0  0  0
  146.7050  160.1800  133.1440 C   0  0  0  0  0  0  0  0  0  0  0  0
  145.3870  159.9780  133.4860 C   0  0  0  0  0  0  0  0  0  0  0  0
  144.3830  160.8990  133.7490 C   0  0  0  0  0  0  0  0  0  0  0  0
  143.1170  160.4120  134.1140 C   0  0  0  0  0  0  0  0  0  0  0  0
  142.8610  159.0100  134.2190 C   0  0  0  0  0  0  0  0  0  0  0  0
  141.5430  158.5120  134.6070 N   0  0  0  0  0  0  0  0  0  0  0  0
  141.1520  158.5320  136.0330 C   0  0  0  0  0  0  0  0  0  0  0  0
  139.7840  157.9010  136.3020 C   0  0  0  0  0  0  0  0  0  0  0  0
  138.8710  158.2220  135.2800 O   0  0  0  0  0  0  0  0  0  0  0  0
  139.2680  157.5530  134.1060 C   0  0  0  0  0  0  0  0  0  0  0  0
  140.5730  158.1340  133.5570 C   0  0  0  0  0  0  0  0  0  0  0  0
  143.9320  158.1140  133.9470 C   0  0  0  0  0  0  0  0  0  0  0  0
  145.1730  158.6320  133.5650 C   0  0  0  0  0  0  0  0  0  0  0  0
  146.3080  157.9570  133.2780 N   0  0  0  0  0  0  0  0  0  0  0  0
  146.4960  156.5320  133.3120 C   0  0  0  0  0  0  0  0  0  0  0  0
  146.5150  155.8820  132.2320 O   0  0  0  0  0  0  0  0  0  0  0  0
  146.6550  155.7990  134.6100 C   0  0  0  0  0  0  0  0  0  0  0  0
  147.6600  156.3640  135.3750 F   0  0  0  0  0  0  0  0  0  0  0  0
  145.4690  155.8610  135.3190 F   0  0  0  0  0  0  0  0  0  0  0  0
  146.9610  154.4740  134.3620 F   0  0  0  0  0  0  0  0  0  0  0  0
  148.2450  156.8320  131.4810 H   0  0  0  0  0  0  0  0  0  0  0  0
  149.9780  157.2690  131.6100 H   0  0  0  0  0  0  0  0  0  0  0  0
  147.2156  161.1429  132.9954 H   0  0  0  0  0  0  0  0  0  0  0  0
  144.5731  161.9798  133.6738 H   0  0  0  0  0  0  0  0  0  0  0  0
  142.3057  161.1247  134.3234 H   0  0  0  0  0  0  0  0  0  0  0  0
  141.9091  157.9796  136.6090 H   0  0  0  0  0  0  0  0  0  0  0  0
  141.0852  159.5878  136.3344 H   0  0  0  0  0  0  0  0  0  0  0  0
  139.8960  156.8080  136.3541 H   0  0  0  0  0  0  0  0  0  0  0  0
  139.3975  158.2945  137.2537 H   0  0  0  0  0  0  0  0  0  0  0  0
  139.4163  156.4868  134.3324 H   0  0  0  0  0  0  0  0  0  0  0  0
  138.4816  157.6806  133.3475 H   0  0  0  0  0  0  0  0  0  0  0  0
  141.0416  157.3813  132.9060 H   0  0  0  0  0  0  0  0  0  0  0  0
  140.3120  159.0543  133.0139 H   0  0  0  0  0  0  0  0  0  0  0  0
  143.7855  157.0274  134.0361 H   0  0  0  0  0  0  0  0  0  0  0  0
  1  2  1  0
  2  3  2  0
  2  4  1  0
  4  5  2  0
  5  6  1  0
  6  7  2  0
  7  8  1  0
  8  9  2  0
  9 10  1  0
 10 11  1  0
 11 12  1  0
 12 13  1  0
 13 14  1  0
 14 15  1  0
  9 16  1  0
 16 17  2  0
 17 18  1  0
 18 19  1  0
 19 20  2  0
 19 21  1  0
 21 22  1  0
 21 23  1  0
 21 24  1  0
 18  4  1  0
 17  6  1  0
 15 10  1  0
  1 25  1  0
  1 26  1  0
  5 27  1  0
  7 28  1  0
  8 29  1  0
 11 30  1  0
 11 31  1  0
 12 32  1  0
 12 33  1  0
 14 34  1  0
 14 35  1  0
 15 36  1  0
 15 37  1  0
 16 38  1  0
M  END
>  <UniqueID>  (74) 
74

>  <SMILES>  (74) 
NC(=O)c1cc2ccc(N3CCOCC3)cc2n1C(=O)C(F)(F)F

>  <Energy>  (74) 
86.2189732423761

>  <Genealogy>  (74) 
NC(=O)c1cc2ccc(N3CCOCC3)cc2n1C(=O)C(F)(F)F (3D coordinates assigned)
NC(=O)c1cc2ccc(N3CCOCC3)cc2n1C(=O)C(F)(F)F (nonaromatic ring conformer: 86.2189732423761 kcal/mol)

>  <smiles>  (74) 
NC(=O)c1cc2ccc(N3CCOCC3)cc2n1C(=O)C(F)(F)F

>  <score_type>  (74) 
oracle

>  <origin>  (74) 
adg

>  <m_score__min__energy>  (74) 
-6.8099999999999996

>  <m_primary>  (74) 
energy

$$$$
74:0
     RDKit          3D

 29 31  0  0  0  0  0  0  0  0999 V2000
  147.7560  160.8750  132.6250 N   0  0  0  0  0  0  0  0  0  0  0  0
  147.3390  159.7980  133.4600 C   0  0  0  0  0  0  0  0  0  0  0  0
  148.2040  159.1400  134.0960 O   0  0  0  0  0  0  0  0  0  0  0  0
  145.9160  159.4080  133.5420 C   0  0  0  0  0  0  0  0  0  0  0  0
  145.4720  158.0960  133.4020 C   0  0  0  0  0  0  0  0  0  0  0  0
  144.0990  158.1680  133.4450 C   0  0  0  0  0  0  0  0  0  0  0  0
  143.1450  157.1600  133.3470 C   0  0  0  0  0  0  0  0  0  0  0  0
  141.7920  157.5220  133.4430 C   0  0  0  0  0  0  0  0  0  0  0  0
  141.4150  158.8710  133.6550 C   0  0  0  0  0  0  0  0  0  0  0  0
  140.0190  159.2040  133.7380 N   0  0  0  0  0  0  0  0  0  0  0  0
  139.1920  159.4900  132.6030 C   0  0  0  0  0  0  0  0  0  0  0  0
  138.2340  158.6640  132.1380 N   0  0  0  0  0  0  0  0  0  0  0  0
  137.7950  159.3380  131.0580 C   0  0  0  0  0  0  0  0  0  0  0  0
  138.4560  160.4960  130.8740 N   0  0  0  0  0  0  0  0  0  0  0  0
  139.3440  160.5900  131.8470 N   0  0  0  0  0  0  0  0  0  0  0  0
  142.4140  159.8710  133.7270 C   0  0  0  0  0  0  0  0  0  0  0  0
  143.7540  159.4850  133.6110 C   0  0  0  0  0  0  0  0  0  0  0  0
  144.8590  160.2590  133.6760 N   0  0  0  0  0  0  0  0  0  0  0  0
  144.8930  161.6720  133.9370 C   0  0  0  0  0  0  0  0  0  0  0  0
  146.0650  162.2730  134.4820 N   0  0  0  0  0  0  0  0  0  0  0  0
  143.8760  162.3800  133.7160 O   0  0  0  0  0  0  0  0  0  0  0  0
  147.3850  161.8410  132.7700 H   0  0  0  0  0  0  0  0  0  0  0  0
  146.0886  157.1929  133.2823 H   0  0  0  0  0  0  0  0  0  0  0  0
  143.4419  156.1112  133.1988 H   0  0  0  0  0  0  0  0  0  0  0  0
  141.0150  156.7486  133.3525 H   0  0  0  0  0  0  0  0  0  0  0  0
  139.5990  159.3360  134.6860 H   0  0  0  0  0  0  0  0  0  0  0  0
  136.9878  158.9825  130.4007 H   0  0  0  0  0  0  0  0  0  0  0  0
  142.1433  160.9274  133.8709 H   0  0  0  0  0  0  0  0  0  0  0  0
  146.9940  161.8010  134.4080 H   0  0  0  0  0  0  0  0  0  0  0  0
  1  2  1  0
  2  3  2  0
  2  4  1  0
  4  5  2  0
  5  6  1  0
  6  7  2  0
  7  8  1  0
  8  9  2  0
  9 10  1  0
 10 11  1  0
 11 12  2  0
 12 13  1  0
 13 14  2  0
 14 15  1  0
  9 16  1  0
 16 17  2  0
 17 18  1  0
 18 19  1  0
 19 20  1  0
 19 21  2  0
 18  4  1  0
 17  6  1  0
 15 11  1  0
  1 22  1  0
  5 23  1  0
  7 24  1  0
  8 25  1  0
 10 26  1  0
 13 27  1  0
 16 28  1  0
 20 29  1  0
M  CHG  3   1  -1  15  -1  20  -1
M  END
>  <UniqueID>  (75) 
75

>  <SMILES>  (75) 
[NH-]C(=O)c1cc2ccc(Nc3ncn[n-]3)cc2n1C([NH-])=O

>  <Energy>  (75) 
106.22444313463625

>  <Genealogy>  (75) 
[NH-]C(=O)c1cc2ccc(Nc3ncn[n-]3)cc2n1C([NH-])=O (protonated)
[NH-]C(=O)c1cc2ccc(Nc3ncn[n-]3)cc2n1C([NH-])=O (3D coordinates assigned)
[NH-]C(=O)c1cc2ccc(Nc3ncn[n-]3)cc2n1C([NH-])=O (optimized conformer: 106.22444313463625 kcal/mol)

>  <smiles>  (75) 
NC(=O)c1cc2ccc(Nc3ncn[nH]3)cc2n1C(N)=O

>  <score_type>  (75) 
oracle

>  <origin>  (75) 
adg

>  <m_score__min__energy>  (75) 
-7.25

>  <m_primary>  (75) 
energy

$$$$
75:0
     RDKit          3D

 24 25  0  0  0  0  0  0  0  0999 V2000
  144.2950  157.0040  134.3010 N   0  0  0  0  0  0  0  0  0  0  0  0
  145.7060  156.8300  134.4420 C   0  0  0  0  0  0  0  0  0  0  0  0
  146.1430  155.9440  135.2240 O   0  0  0  0  0  0  0  0  0  0  0  0
  146.6580  157.6230  133.6410 C   0  0  0  0  0  0  0  0  0  0  0  0
  147.9120  157.1570  133.2620 C   0  0  0  0  0  0  0  0  0  0  0  0
  148.4520  158.1560  132.4850 C   0  0  0  0  0  0  0  0  0  0  0  0
  149.6930  158.2270  131.8560 C   0  0  0  0  0  0  0  0  0  0  0  0
  150.0040  159.4000  131.1490 C   0  0  0  0  0  0  0  0  0  0  0  0
  149.0840  160.4720  131.0920 C   0  0  0  0  0  0  0  0  0  0  0  0
  149.4210  161.6670  130.3800 N   0  0  0  0  0  0  0  0  0  0  0  0
  147.8360  160.3680  131.7430 C   0  0  0  0  0  0  0  0  0  0  0  0
  147.5400  159.1800  132.4230 C   0  0  0  0  0  0  0  0  0  0  0  0
  146.4310  158.8690  133.1320 N   0  0  0  0  0  0  0  0  0  0  0  0
  145.3080  159.7280  133.3910 C   0  0  0  0  0  0  0  0  0  0  0  0
  144.1560  159.4070  132.9930 O   0  0  0  0  0  0  0  0  0  0  0  0
  145.4770  160.9190  134.0860 O   0  0  0  0  0  0  0  0  0  0  0  0
  143.8990  157.6040  133.5440 H   0  0  0  0  0  0  0  0  0  0  0  0
  143.6370  156.4610  134.9030 H   0  0  0  0  0  0  0  0  0  0  0  0
  148.3740  156.1945  133.5269 H   0  0  0  0  0  0  0  0  0  0  0  0
  150.4062  157.3914  131.9113 H   0  0  0  0  0  0  0  0  0  0  0  0
  150.9726  159.4855  130.6347 H   0  0  0  0  0  0  0  0  0  0  0  0
  150.3630  162.1040  130.4870 H   0  0  0  0  0  0  0  0  0  0  0  0
  148.7300  162.1230  129.7440 H   0  0  0  0  0  0  0  0  0  0  0  0
  147.1148  161.1982  131.7169 H   0  0  0  0  0  0  0  0  0  0  0  0
  1  2  1  0
  2  3  2  0
  2  4  1  0
  4  5  2  0
  5  6  1  0
  6  7  2  0
  7  8  1  0
  8  9  2  0
  9 10  1  0
  9 11  1  0
 11 12  2  0
 12 13  1  0
 13 14  1  0
 14 15  2  0
 14 16  1  0
 13  4  1  0
 12  6  1  0
  1 17  1  0
  1 18  1  0
  5 19  1  0
  7 20  1  0
  8 21  1  0
 10 22  1  0
 10 23  1  0
 11 24  1  0
M  CHG  1  16  -1
M  END
>  <UniqueID>  (76) 
76

>  <SMILES>  (76) 
NC(=O)c1cc2ccc(N)cc2n1C(=O)[O-]

>  <Energy>  (76) 
63.91083408061215

>  <Genealogy>  (76) 
NC(=O)c1cc2ccc(N)cc2n1C(=O)[O-] (protonated)
NC(=O)c1cc2ccc(N)cc2n1C(=O)[O-] (3D coordinates assigned)
NC(=O)c1cc2ccc(N)cc2n1C(=O)[O-] (optimized conformer: 63.91083408061215 kcal/mol)

>  <smiles>  (76) 
NC(=O)c1cc2ccc(N)cc2n1C(=O)O

>  <score_type>  (76) 
oracle

>  <origin>  (76) 
adg

>  <m_score__min__energy>  (76) 
-5.6299999999999999

>  <m_primary>  (76) 
energy

$$$$
76:0
     RDKit          3D

 36 38  0  0  0  0  0  0  0  0999 V2000
  145.3530  155.6830  134.4680 C   0  0  0  0  0  0  0  0  0  0  0  0
  145.8600  156.5420  133.3540 C   0  0  0  0  0  0  0  0  0  0  0  0
  146.4610  156.0050  132.3840 O   0  0  0  0  0  0  0  0  0  0  0  0
  145.7450  157.9720  133.4160 N   0  0  0  0  0  0  0  0  0  0  0  0
  146.7150  158.9060  133.2020 C   0  0  0  0  0  0  0  0  0  0  0  0
  148.1520  158.6340  133.0020 C   0  0  0  0  0  0  0  0  0  0  0  0
  148.6120  157.9400  131.8440 N   0  0  0  0  0  0  0  0  0  0  0  0
  148.9830  158.9820  133.8830 O   0  0  0  0  0  0  0  0  0  0  0  0
  146.1770  160.1910  133.2780 C   0  0  0  0  0  0  0  0  0  0  0  0
  144.8410  160.0120  133.5580 C   0  0  0  0  0  0  0  0  0  0  0  0
  143.8280  160.9490  133.7370 C   0  0  0  0  0  0  0  0  0  0  0  0
  142.5320  160.4730  133.9990 C   0  0  0  0  0  0  0  0  0  0  0  0
  142.2710  159.0820  134.0720 C   0  0  0  0  0  0  0  0  0  0  0  0
  140.9020  158.5930  134.3440 C   0  0  0  0  0  0  0  0  0  0  0  0
  139.8660  158.3950  133.4450 C   0  0  0  0  0  0  0  0  0  0  0  0
  139.8910  158.6370  131.9690 C   0  0  0  0  0  0  0  0  0  0  0  0
  138.7830  157.9420  134.1030 N   0  0  0  0  0  0  0  0  0  0  0  0
  139.1100  157.8470  135.3610 O   0  0  0  0  0  0  0  0  0  0  0  0
  140.3530  158.2240  135.5600 C   0  0  0  0  0  0  0  0  0  0  0  0
  141.0150  158.2270  136.8990 C   0  0  0  0  0  0  0  0  0  0  0  0
  143.3270  158.1630  133.8850 C   0  0  0  0  0  0  0  0  0  0  0  0
  144.6080  158.6640  133.6390 C   0  0  0  0  0  0  0  0  0  0  0  0
  145.6214  156.1377  135.4330 H   0  0  0  0  0  0  0  0  0  0  0  0
  144.2588  155.5962  134.3953 H   0  0  0  0  0  0  0  0  0  0  0  0
  145.8058  154.6832  134.3953 H   0  0  0  0  0  0  0  0  0  0  0  0
  148.1110  157.0970  131.4890 H   0  0  0  0  0  0  0  0  0  0  0  0
  146.7078  161.1449  133.1429 H   0  0  0  0  0  0  0  0  0  0  0  0
  144.0350  162.0276  133.6754 H   0  0  0  0  0  0  0  0  0  0  0  0
  141.7103  161.1887  134.1492 H   0  0  0  0  0  0  0  0  0  0  0  0
  140.0023  159.7142  131.7759 H   0  0  0  0  0  0  0  0  0  0  0  0
  140.7379  158.0950  131.5229 H   0  0  0  0  0  0  0  0  0  0  0  0
  138.9512  158.2797  131.5229 H   0  0  0  0  0  0  0  0  0  0  0  0
  140.2478  158.2235  137.6873 H   0  0  0  0  0  0  0  0  0  0  0  0
  141.6464  157.3317  136.9979 H   0  0  0  0  0  0  0  0  0  0  0  0
  141.6383  159.1280  136.9979 H   0  0  0  0  0  0  0  0  0  0  0  0
  143.1454  157.0791  133.9319 H   0  0  0  0  0  0  0  0  0  0  0  0
  1  2  1  0
  2  3  2  0
  2  4  1  0
  4  5  1  0
  5  6  1  0
  6  7  1  0
  6  8  2  0
  5  9  2  0
  9 10  1  0
 10 11  2  0
 11 12  1  0
 12 13  2  0
 13 14  1  0
 14 15  1  0
 15 16  1  0
 15 17  2  0
 17 18  1  0
 18 19  1  0
 19 20  1  0
 13 21  1  0
 21 22  2  0
 22  4  1  0
 22 10  1  0
 19 14  2  0
  1 23  1  0
  1 24  1  0
  1 25  1  0
  7 26  1  0
  9 27  1  0
 11 28  1  0
 12 29  1  0
 16 30  1  0
 16 31  1  0
 16 32  1  0
 20 33  1  0
 20 34  1  0
 20 35  1  0
 21 36  1  0
M  CHG  1   7  -1
M  END
>  <UniqueID>  (77) 
77

>  <SMILES>  (77) 
CC(=O)n1c(C([NH-])=O)cc2ccc(-c3c(C)noc3C)cc21

>  <Energy>  (77) 
110.7194675620214

>  <Genealogy>  (77) 
CC(=O)n1c(C([NH-])=O)cc2ccc(-c3c(C)noc3C)cc21 (protonated)
CC(=O)n1c(C([NH-])=O)cc2ccc(-c3c(C)noc3C)cc21 (3D coordinates assigned)
CC(=O)n1c(C([NH-])=O)cc2ccc(-c3c(C)noc3C)cc21 (optimized conformer: 110.7194675620214 kcal/mol)

>  <smiles>  (77) 
CC(=O)n1c(C(N)=O)cc2ccc(-c3c(C)noc3C)cc21

>  <score_type>  (77) 
oracle

>  <origin>  (77) 
adg

>  <m_score__min__energy>  (77) 
-7.4800000000000004

>  <m_primary>  (77) 
energy

$$$$
77:0
     RDKit          3D

 26 27  0  0  0  0  0  0  0  0999 V2000
  149.9900  157.8150  132.1680 N   0  0  0  0  0  0  0  0  0  0  0  0
  149.3060  159.0640  132.2240 C   0  0  0  0  0  0  0  0  0  0  0  0
  149.8730  160.0990  131.7830 O   0  0  0  0  0  0  0  0  0  0  0  0
  147.9260  159.1520  132.7460 C   0  0  0  0  0  0  0  0  0  0  0  0
  147.2720  160.3590  132.9880 C   0  0  0  0  0  0  0  0  0  0  0  0
  145.9940  160.0120  133.3650 C   0  0  0  0  0  0  0  0  0  0  0  0
  144.9140  160.8150  133.7160 C   0  0  0  0  0  0  0  0  0  0  0  0
  143.7120  160.1830  134.0760 C   0  0  0  0  0  0  0  0  0  0  0  0
  143.6160  158.7660  134.1040 C   0  0  0  0  0  0  0  0  0  0  0  0
  142.3100  158.1010  134.4530 C   0  0  0  0  0  0  0  0  0  0  0  0
  141.4790  158.9790  135.1270 F   0  0  0  0  0  0  0  0  0  0  0  0
  141.6550  157.6770  133.3100 F   0  0  0  0  0  0  0  0  0  0  0  0
  142.5580  157.0070  135.2610 F   0  0  0  0  0  0  0  0  0  0  0  0
  144.7310  157.9860  133.7160 C   0  0  0  0  0  0  0  0  0  0  0  0
  145.9100  158.6440  133.3490 C   0  0  0  0  0  0  0  0  0  0  0  0
  147.0880  158.1020  132.9750 N   0  0  0  0  0  0  0  0  0  0  0  0
  147.3950  156.6990  132.9190 C   0  0  0  0  0  0  0  0  0  0  0  0
  146.8480  155.8810  131.8850 N   0  0  0  0  0  0  0  0  0  0  0  0
  148.1760  156.1920  133.7660 O   0  0  0  0  0  0  0  0  0  0  0  0
  149.9550  157.1480  132.9700 H   0  0  0  0  0  0  0  0  0  0  0  0
  147.6884  161.3731  132.8971 H   0  0  0  0  0  0  0  0  0  0  0  0
  144.9984  161.9118  133.7119 H   0  0  0  0  0  0  0  0  0  0  0  0
  142.8350  160.7926  134.3393 H   0  0  0  0  0  0  0  0  0  0  0  0
  144.6723  156.8876  133.7032 H   0  0  0  0  0  0  0  0  0  0  0  0
  146.2590  156.3010  131.1320 H   0  0  0  0  0  0  0  0  0  0  0  0
  147.0610  154.8600  131.8530 H   0  0  0  0  0  0  0  0  0  0  0  0
  1  2  1  0
  2  3  2  0
  2  4  1  0
  4  5  2  0
  5  6  1  0
  6  7  2  0
  7  8  1  0
  8  9  2  0
  9 10  1  0
 10 11  1  0
 10 12  1  0
 10 13  1  0
  9 14  1  0
 14 15  2  0
 15 16  1  0
 16 17  1  0
 17 18  1  0
 17 19  2  0
 16  4  1  0
 15  6  1  0
  1 20  1  0
  5 21  1  0
  7 22  1  0
  8 23  1  0
 14 24  1  0
 18 25  1  0
 18 26  1  0
M  CHG  1   1  -1
M  END
>  <UniqueID>  (78) 
78

>  <SMILES>  (78) 
[NH-]C(=O)c1cc2ccc(C(F)(F)F)cc2n1C(N)=O

>  <Energy>  (78) 
65.78473730403277

>  <Genealogy>  (78) 
[NH-]C(=O)c1cc2ccc(C(F)(F)F)cc2n1C(N)=O (protonated)
[NH-]C(=O)c1cc2ccc(C(F)(F)F)cc2n1C(N)=O (3D coordinates assigned)
[NH-]C(=O)c1cc2ccc(C(F)(F)F)cc2n1C(N)=O (optimized conformer: 65.78473730403277 kcal/mol)

>  <smiles>  (78) 
NC(=O)c1cc2ccc(C(F)(F)F)cc2n1C(N)=O

>  <score_type>  (78) 
oracle

>  <origin>  (78) 
adg

>  <m_score__min__energy>  (78) 
-5.75

>  <m_primary>  (78) 
energy

$$$$
78:0
     RDKit          3D

 41 43  0  0  0  0  0  0  0  0999 V2000
  138.3750  158.5420  132.3420 C   0  0  0  0  0  0  0  0  0  0  0  0
  139.1780  157.3150  132.7560 C   0  0  0  0  0  0  0  0  0  0  0  0
  139.3290  157.2660  134.1740 O   0  0  0  0  0  0  0  0  0  0  0  0
  140.4760  156.7800  134.8110 C   0  0  0  0  0  0  0  0  0  0  0  0
  141.0500  155.7410  134.3850 O   0  0  0  0  0  0  0  0  0  0  0  0
  141.0100  157.4770  135.9480 N   0  0  0  0  0  0  0  0  0  0  0  0
  141.6380  158.6870  135.9640 C   0  0  0  0  0  0  0  0  0  0  0  0
  141.7610  159.6150  134.8210 C   0  0  0  0  0  0  0  0  0  0  0  0
  140.6130  159.9300  134.0350 N   0  0  0  0  0  0  0  0  0  0  0  0
  142.8770  160.1060  134.5060 O   0  0  0  0  0  0  0  0  0  0  0  0
  142.0870  158.9870  137.2490 C   0  0  0  0  0  0  0  0  0  0  0  0
  141.7090  157.9170  138.0270 C   0  0  0  0  0  0  0  0  0  0  0  0
  141.9040  157.6850  139.3850 C   0  0  0  0  0  0  0  0  0  0  0  0
  141.4250  156.4780  139.9220 C   0  0  0  0  0  0  0  0  0  0  0  0
  140.7800  155.5260  139.0950 C   0  0  0  0  0  0  0  0  0  0  0  0
  140.2520  154.2440  139.6840 C   0  0  0  0  0  0  0  0  0  0  0  0
  141.1190  153.0450  139.2720 C   0  0  1  0  0  0  0  0  0  0  0  0
  140.7300  151.7520  140.0280 C   0  0  0  0  0  0  0  0  0  0  0  0
  140.7060  150.6270  138.9870 C   0  0  0  0  0  0  0  0  0  0  0  0
  140.7460  151.3630  137.7090 C   0  0  0  0  0  0  0  0  0  0  0  0
  140.6170  150.8170  136.5820 O   0  0  0  0  0  0  0  0  0  0  0  0
  140.9520  152.7510  137.8580 N   0  0  0  0  0  0  0  0  0  0  0  0
  140.5910  155.8010  137.7220 C   0  0  0  0  0  0  0  0  0  0  0  0
  141.0610  157.0190  137.2180 C   0  0  0  0  0  0  0  0  0  0  0  0
  138.0275  159.0730  133.2404 H   0  0  0  0  0  0  0  0  0  0  0  0
  139.0104  159.2112  131.7433 H   0  0  0  0  0  0  0  0  0  0  0  0
  137.5074  158.2276  131.7433 H   0  0  0  0  0  0  0  0  0  0  0  0
  138.6538  156.4092  132.4172 H   0  0  0  0  0  0  0  0  0  0  0  0
  140.1755  157.3733  132.2959 H   0  0  0  0  0  0  0  0  0  0  0  0
  139.7250  159.3920  134.1440 H   0  0  0  0  0  0  0  0  0  0  0  0
  142.6287  159.8881  137.5725 H   0  0  0  0  0  0  0  0  0  0  0  0
  142.4172  158.4234  140.0185 H   0  0  0  0  0  0  0  0  0  0  0  0
  141.5522  156.2705  140.9947 H   0  0  0  0  0  0  0  0  0  0  0  0
  140.2517  154.3265  140.7809 H   0  0  0  0  0  0  0  0  0  0  0  0
  139.2314  154.0818  139.3070 H   0  0  0  0  0  0  0  0  0  0  0  0
  142.1538  153.3309  139.5119 H   0  0  0  0  0  0  0  0  0  0  0  0
  141.4725  151.5308  140.8089 H   0  0  0  0  0  0  0  0  0  0  0  0
  139.7518  151.8587  140.5196 H   0  0  0  0  0  0  0  0  0  0  0  0
  141.5818  149.9700  139.0934 H   0  0  0  0  0  0  0  0  0  0  0  0
  139.8324  149.9652  139.0812 H   0  0  0  0  0  0  0  0  0  0  0  0
  140.0872  155.0760  137.0658 H   0  0  0  0  0  0  0  0  0  0  0  0
  1  2  1  0
  2  3  1  0
  3  4  1  0
  4  5  2  0
  4  6  1  0
  6  7  1  0
  7  8  1  0
  8  9  1  0
  8 10  2  0
  7 11  2  0
 11 12  1  0
 12 13  2  0
 13 14  1  0
 14 15  2  0
 15 16  1  0
 16 17  1  0
 17 18  1  0
 18 19  1  0
 19 20  1  0
 20 21  2  0
 20 22  1  0
 15 23  1  0
 23 24  2  0
 24  6  1  0
 24 12  1  0
 22 17  1  0
  1 25  1  0
  1 26  1  0
  1 27  1  0
  2 28  1  0
  2 29  1  0
  9 30  1  0
 11 31  1  0
 13 32  1  0
 14 33  1  0
 16 34  1  0
 16 35  1  0
 17 36  1  6
 18 37  1  0
 18 38  1  0
 19 39  1  0
 19 40  1  0
 23 41  1  0
M  CHG  2   9  -1  22  -1
M  END
>  <UniqueID>  (79) 
79

>  <SMILES>  (79) 
CCOC(=O)n1c(C([NH-])=O)cc2ccc(C[C@H]3CCC(=O)[N-]3)cc21

>  <Energy>  (79) 
82.2797386379586

>  <Genealogy>  (79) 
CCOC(=O)n1c(C([NH-])=O)cc2ccc(CC3CCC(=O)[N-]3)cc21 (protonated)
CCOC(=O)n1c(C([NH-])=O)cc2ccc(C[C@H]3CCC(=O)[N-]3)cc21 (chirality)
CCOC(=O)n1c(C([NH-])=O)cc2ccc(C[C@H]3CCC(=O)[N-]3)cc21 (3D coordinates assigned)
CCOC(=O)n1c(C([NH-])=O)cc2ccc(C[C@H]3CCC(=O)[N-]3)cc21 (nonaromatic ring conformer: 82.2797386379586 kcal/mol)

>  <smiles>  (79) 
CCOC(=O)n1c(C(N)=O)cc2ccc(CC3CCC(=O)N3)cc21

>  <score_type>  (79) 
oracle

>  <origin>  (79) 
adg

>  <m_score__min__energy>  (79) 
-7.54

>  <m_primary>  (79) 
energy

$$$$
79:0
     RDKit          3D

 31 32  0  0  0  0  0  0  0  0999 V2000
  139.1380  145.9980  129.2780 C   0  0  0  0  0  0  0  0  0  0  0  0
  139.2890  147.0260  130.2990 N   0  0  0  0  0  0  0  0  0  0  0  0
  138.7300  148.3420  130.2200 C   0  0  0  0  0  0  0  0  0  0  0  0
  138.4090  148.7970  129.0910 O   0  0  0  0  0  0  0  0  0  0  0  0
  138.5420  149.2080  131.4370 C   0  0  0  0  0  0  0  0  0  0  0  0
  139.8440  149.8320  131.8610 C   0  0  0  0  0  0  0  0  0  0  0  0
  141.0300  149.0560  131.9060 C   0  0  0  0  0  0  0  0  0  0  0  0
  142.2510  149.6360  132.2890 C   0  0  0  0  0  0  0  0  0  0  0  0
  142.2540  150.9850  132.6320 C   0  0  0  0  0  0  0  0  0  0  0  0
  143.2970  151.7960  133.0140 C   0  0  0  0  0  0  0  0  0  0  0  0
  142.7300  153.0520  133.2280 C   0  0  0  0  0  0  0  0  0  0  0  0
  143.4810  154.2180  133.7410 C   0  0  0  0  0  0  0  0  0  0  0  0
  143.4560  155.4670  133.0460 N   0  0  0  0  0  0  0  0  0  0  0  0
  144.1790  154.1130  134.7840 O   0  0  0  0  0  0  0  0  0  0  0  0
  141.3880  153.0180  132.9840 N   0  0  0  0  0  0  0  0  0  0  0  0
  140.4600  154.1140  133.0300 C   0  0  0  0  0  0  0  0  0  0  0  0
  139.2200  153.9030  132.9610 O   0  0  0  0  0  0  0  0  0  0  0  0
  140.9190  155.4180  133.1670 O   0  0  0  0  0  0  0  0  0  0  0  0
  141.1120  151.7440  132.6200 C   0  0  0  0  0  0  0  0  0  0  0  0
  139.8870  151.1980  132.2250 C   0  0  0  0  0  0  0  0  0  0  0  0
  138.9944  145.0201  129.7607 H   0  0  0  0  0  0  0  0  0  0  0  0
  138.2642  146.2294  128.6511 H   0  0  0  0  0  0  0  0  0  0  0  0
  140.0414  145.9683  128.6511 H   0  0  0  0  0  0  0  0  0  0  0  0
  137.8204  150.0047  131.2036 H   0  0  0  0  0  0  0  0  0  0  0  0
  138.1699  148.5801  132.2599 H   0  0  0  0  0  0  0  0  0  0  0  0
  140.9937  147.9896  131.6385 H   0  0  0  0  0  0  0  0  0  0  0  0
  143.1765  149.0421  132.3169 H   0  0  0  0  0  0  0  0  0  0  0  0
  144.3542  151.5138  133.1268 H   0  0  0  0  0  0  0  0  0  0  0  0
  142.8470  155.6100  132.2110 H   0  0  0  0  0  0  0  0  0  0  0  0
  144.0200  156.2720  133.3950 H   0  0  0  0  0  0  0  0  0  0  0  0
  138.9777  151.8165  132.1980 H   0  0  0  0  0  0  0  0  0  0  0  0
  1  2  1  0
  2  3  1  0
  3  4  2  0
  3  5  1  0
  5  6  1  0
  6  7  2  0
  7  8  1  0
  8  9  2  0
  9 10  1  0
 10 11  2  0
 11 12  1  0
 12 13  1  0
 12 14  2  0
 11 15  1  0
 15 16  1  0
 16 17  2  0
 16 18  1  0
 15 19  1  0
 19 20  2  0
 20  6  1  0
 19  9  1  0
  1 21  1  0
  1 22  1  0
  1 23  1  0
  5 24  1  0
  5 25  1  0
  7 26  1  0
  8 27  1  0
 10 28  1  0
 13 29  1  0
 13 30  1  0
 20 31  1  0
M  CHG  2   2  -1  18  -1
M  END
>  <UniqueID>  (80) 
80

>  <SMILES>  (80) 
C[N-]C(=O)Cc1ccc2cc(C(N)=O)n(C(=O)[O-])c2c1

>  <Energy>  (80) 
66.8575697587726

>  <Genealogy>  (80) 
C[N-]C(=O)Cc1ccc2cc(C(N)=O)n(C(=O)[O-])c2c1 (protonated)
C[N-]C(=O)Cc1ccc2cc(C(N)=O)n(C(=O)[O-])c2c1 (3D coordinates assigned)
C[N-]C(=O)Cc1ccc2cc(C(N)=O)n(C(=O)[O-])c2c1 (optimized conformer: 66.8575697587726 kcal/mol)

>  <smiles>  (80) 
CNC(=O)Cc1ccc2cc(C(N)=O)n(C(=O)O)c2c1

>  <score_type>  (80) 
oracle

>  <origin>  (80) 
adg

>  <m_score__min__energy>  (80) 
-6.3399999999999999

>  <m_primary>  (80) 
energy

$$$$
80:0
     RDKit          3D

 47 50  0  0  0  0  0  0  0  0999 V2000
  140.2480  151.9000  132.9480 N   0  0  0  0  0  0  0  0  0  0  0  0
  141.2020  152.0270  134.0040 C   0  0  0  0  0  0  0  0  0  0  0  0
  141.1060  151.2770  135.0110 O   0  0  0  0  0  0  0  0  0  0  0  0
  142.2660  153.0510  133.9640 C   0  0  0  0  0  0  0  0  0  0  0  0
  143.6260  152.7520  133.9920 C   0  0  0  0  0  0  0  0  0  0  0  0
  144.2670  153.9680  133.9260 C   0  0  0  0  0  0  0  0  0  0  0  0
  145.6240  154.2640  133.8850 C   0  0  0  0  0  0  0  0  0  0  0  0
  146.0040  155.6110  133.7540 C   0  0  0  0  0  0  0  0  0  0  0  0
  145.0270  156.6390  133.6460 C   0  0  0  0  0  0  0  0  0  0  0  0
  145.4260  158.0210  133.4900 N   0  0  0  0  0  0  0  0  0  0  0  0
  144.4880  159.1260  133.3570 C   0  0  0  0  0  0  0  0  0  0  0  0
  145.3310  160.3930  133.3920 C   0  0  0  0  0  0  0  0  0  0  0  0
  146.7620  159.9490  133.0800 C   0  0  2  0  0  0  0  0  0  0  0  0
  147.0320  160.1110  131.7110 O   0  0  0  0  0  0  0  0  0  0  0  0
  146.8100  158.4670  133.4410 C   0  0  0  0  0  0  0  0  0  0  0  0
  143.6540  156.2870  133.6850 C   0  0  0  0  0  0  0  0  0  0  0  0
  143.3080  154.9440  133.8520 C   0  0  0  0  0  0  0  0  0  0  0  0
  142.0740  154.3970  133.8840 N   0  0  0  0  0  0  0  0  0  0  0  0
  140.8250  155.0860  133.7200 C   0  0  0  0  0  0  0  0  0  0  0  0
  139.9300  154.5790  132.9920 O   0  0  0  0  0  0  0  0  0  0  0  0
  140.5350  156.3420  134.4970 C   0  0  0  0  0  0  0  0  0  0  0  0
  140.2250  157.5130  133.6010 C   0  0  0  0  0  0  0  0  0  0  0  0
  139.1000  157.4990  132.7600 C   0  0  0  0  0  0  0  0  0  0  0  0
  138.8240  158.5960  131.9420 C   0  0  0  0  0  0  0  0  0  0  0  0
  139.6680  159.7080  131.9800 C   0  0  0  0  0  0  0  0  0  0  0  0
  140.7400  159.7210  132.8150 N   0  0  0  0  0  0  0  0  0  0  0  0
  141.0300  158.6660  133.6230 C   0  0  0  0  0  0  0  0  0  0  0  0
  140.1530  152.6340  132.2130 H   0  0  0  0  0  0  0  0  0  0  0  0
  139.5520  151.1210  132.9650 H   0  0  0  0  0  0  0  0  0  0  0  0
  144.0891  151.7561  134.0537 H   0  0  0  0  0  0  0  0  0  0  0  0
  146.3792  153.4671  133.9531 H   0  0  0  0  0  0  0  0  0  0  0  0
  147.0720  155.8737  133.7347 H   0  0  0  0  0  0  0  0  0  0  0  0
  143.9443  159.0541  132.4035 H   0  0  0  0  0  0  0  0  0  0  0  0
  143.7365  159.1177  134.1603 H   0  0  0  0  0  0  0  0  0  0  0  0
  144.9783  161.1091  132.6351 H   0  0  0  0  0  0  0  0  0  0  0  0
  145.2664  160.8960  134.3681 H   0  0  0  0  0  0  0  0  0  0  0  0
  147.5043  160.5393  133.6374 H   0  0  0  0  0  0  0  0  0  0  0  0
  146.4560  160.8560  131.3950 H   0  0  0  0  0  0  0  0  0  0  0  0
  147.3657  157.9051  132.6759 H   0  0  0  0  0  0  0  0  0  0  0  0
  147.3204  158.3027  134.4014 H   0  0  0  0  0  0  0  0  0  0  0  0
  142.8754  157.0576  133.5855 H   0  0  0  0  0  0  0  0  0  0  0  0
  139.6706  156.1602  135.1525 H   0  0  0  0  0  0  0  0  0  0  0  0
  141.4352  156.5928  135.0773 H   0  0  0  0  0  0  0  0  0  0  0  0
  138.4356  156.6224  132.7460 H   0  0  0  0  0  0  0  0  0  0  0  0
  137.9502  158.5846  131.2740 H   0  0  0  0  0  0  0  0  0  0  0  0
  139.4648  160.5743  131.3333 H   0  0  0  0  0  0  0  0  0  0  0  0
  141.8981  158.7148  134.2968 H   0  0  0  0  0  0  0  0  0  0  0  0
  1  2  1  0
  2  3  2  0
  2  4  1  0
  4  5  2  0
  5  6  1  0
  6  7  2  0
  7  8  1  0
  8  9  2  0
  9 10  1  0
 10 11  1  0
 11 12  1  0
 12 13  1  0
 13 14  1  0
 13 15  1  0
  9 16  1  0
 16 17  2  0
 17 18  1  0
 18 19  1  0
 19 20  2  0
 19 21  1  0
 21 22  1  0
 22 23  2  0
 23 24  1  0
 24 25  2  0
 25 26  1  0
 26 27  2  0
 18  4  1  0
 27 22  1  0
 17  6  1  0
 15 10  1  0
  1 28  1  0
  1 29  1  0
  5 30  1  0
  7 31  1  0
  8 32  1  0
 11 33  1  0
 11 34  1  0
 12 35  1  0
 12 36  1  0
 13 37  1  1
 14 38  1  0
 15 39  1  0
 15 40  1  0
 16 41  1  0
 21 42  1  0
 21 43  1  0
 23 44  1  0
 24 45  1  0
 25 46  1  0
 27 47  1  0
M  END
>  <UniqueID>  (81) 
81

>  <SMILES>  (81) 
NC(=O)c1cc2ccc(N3CC[C@H](O)C3)cc2n1C(=O)Cc1cccnc1

>  <Energy>  (81) 
92.74738048800218

>  <Genealogy>  (81) 
NC(=O)c1cc2ccc(N3CC[C@H](O)C3)cc2n1C(=O)Cc1cccnc1 (3D coordinates assigned)
NC(=O)c1cc2ccc(N3CC[C@H](O)C3)cc2n1C(=O)Cc1cccnc1 (nonaromatic ring conformer: 92.74738048800218 kcal/mol)

>  <smiles>  (81) 
NC(=O)c1cc2ccc(N3CC[C@H](O)C3)cc2n1C(=O)Cc1cccnc1

>  <score_type>  (81) 
oracle

>  <origin>  (81) 
adg

>  <m_score__min__energy>  (81) 
-9.0199999999999996

>  <m_primary>  (81) 
energy

$$$$
81:0
     RDKit          3D

 46 47  0  0  0  0  0  0  0  0999 V2000
  141.7150  156.6860  138.8940 C   0  0  0  0  0  0  0  0  0  0  0  0
  141.2040  155.4280  138.1780 C   0  0  0  0  0  0  0  0  0  0  0  0
  140.1140  154.7680  139.0450 C   0  0  0  0  0  0  0  0  0  0  0  0
  142.3860  154.4630  137.9640 C   0  0  0  0  0  0  0  0  0  0  0  0
  140.6600  155.8500  136.9200 O   0  0  0  0  0  0  0  0  0  0  0  0
  140.2740  157.1560  136.5740 C   0  0  0  0  0  0  0  0  0  0  0  0
  139.0760  157.5320  136.7260 O   0  0  0  0  0  0  0  0  0  0  0  0
  141.2600  158.0450  136.0000 N   0  0  2  0  0  0  0  0  0  0  0  0
  141.1250  159.3760  136.5610 C   0  0  0  0  0  0  0  0  0  0  0  0
  140.9920  160.3880  135.8220 O   0  0  0  0  0  0  0  0  0  0  0  0
  141.0830  159.5400  137.9410 O   0  0  0  0  0  0  0  0  0  0  0  0
  141.2460  157.9870  134.5020 C   0  0  2  0  0  0  0  0  0  0  0  0
  143.1330  158.8380  133.7050 I   0  0  0  0  0  0  0  0  0  0  0  0
  140.0780  158.7440  134.0230 N   0  0  0  0  0  0  0  0  0  0  0  0
  139.8550  159.0530  132.8080 C   0  0  0  0  0  0  0  0  0  0  0  0
  139.5630  159.4480  131.2740 S   0  0  0  0  0  0  0  0  0  0  0  0
  141.0660  156.5560  133.9560 C   0  0  0  0  0  0  0  0  0  0  0  0
  139.8050  156.1640  133.4230 C   0  0  0  0  0  0  0  0  0  0  0  0
  139.5710  154.8520  132.9820 C   0  0  0  0  0  0  0  0  0  0  0  0
  140.5980  153.9280  133.1110 C   0  0  0  0  0  0  0  0  0  0  0  0
  140.6230  152.5870  132.8050 C   0  0  0  0  0  0  0  0  0  0  0  0
  141.8890  152.1460  133.1820 C   0  0  0  0  0  0  0  0  0  0  0  0
  142.3740  150.7710  132.9490 C   0  0  0  0  0  0  0  0  0  0  0  0
  143.5840  150.5300  132.2360 N   0  0  0  0  0  0  0  0  0  0  0  0
  141.6840  149.7910  133.3400 O   0  0  0  0  0  0  0  0  0  0  0  0
  142.6140  153.1730  133.7110 N   0  0  0  0  0  0  0  0  0  0  0  0
  143.9240  153.1110  134.2970 C   0  0  0  0  0  0  0  0  0  0  0  0
  144.0900  153.3960  135.5130 O   0  0  0  0  0  0  0  0  0  0  0  0
  145.0150  152.7100  133.5360 O   0  0  0  0  0  0  0  0  0  0  0  0
  141.8080  154.2580  133.6550 C   0  0  0  0  0  0  0  0  0  0  0  0
  142.0610  155.5520  134.1250 C   0  0  0  0  0  0  0  0  0  0  0  0
  141.6550  156.5383  139.9824 H   0  0  0  0  0  0  0  0  0  0  0  0
  142.7602  156.8726  138.6063 H   0  0  0  0  0  0  0  0  0  0  0  0
  141.0960  157.5486  138.6063 H   0  0  0  0  0  0  0  0  0  0  0  0
  140.3537  154.9132  140.1087 H   0  0  0  0  0  0  0  0  0  0  0  0
  139.1400  155.2282  138.8225 H   0  0  0  0  0  0  0  0  0  0  0  0
  140.0703  153.6916  138.8225 H   0  0  0  0  0  0  0  0  0  0  0  0
  142.7788  154.1423  138.9401 H   0  0  0  0  0  0  0  0  0  0  0  0
  142.0435  153.5832  137.3996 H   0  0  0  0  0  0  0  0  0  0  0  0
  143.1795  154.9746  137.3996 H   0  0  0  0  0  0  0  0  0  0  0  0
  142.1820  157.6720  136.3270 H   0  0  0  0  0  0  0  0  0  0  0  0
  138.9959  156.9062  133.3553 H   0  0  0  0  0  0  0  0  0  0  0  0
  138.6022  154.5650  132.5471 H   0  0  0  0  0  0  0  0  0  0  0  0
  139.8147  151.9899  132.3576 H   0  0  0  0  0  0  0  0  0  0  0  0
  144.2620  151.3010  132.0520 H   0  0  0  0  0  0  0  0  0  0  0  0
  143.0152  155.7897  134.6180 H   0  0  0  0  0  0  0  0  0  0  0  0
  1  2  1  0
  2  3  1  0
  2  4  1  0
  2  5  1  0
  5  6  1  0
  6  7  2  0
  6  8  1  0
  8  9  1  0
  9 10  2  0
  9 11  1  0
  8 12  1  0
 12 13  1  6
 12 14  1  0
 14 15  2  0
 15 16  2  0
 12 17  1  0
 17 18  2  0
 18 19  1  0
 19 20  2  0
 20 21  1  0
 21 22  2  0
 22 23  1  0
 23 24  1  0
 23 25  2  0
 22 26  1  0
 26 27  1  0
 27 28  2  0
 27 29  1  0
 26 30  1  0
 30 31  2  0
 31 17  1  0
 30 20  1  0
  1 32  1  0
  1 33  1  0
  1 34  1  0
  3 35  1  0
  3 36  1  0
  3 37  1  0
  4 38  1  0
  4 39  1  0
  4 40  1  0
  8 41  1  1
 18 42  1  0
 19 43  1  0
 21 44  1  0
 24 45  1  0
 31 46  1  0
M  CHG  4   8   1  11  -1  24  -1  29  -1
M  END
>  <UniqueID>  (82) 
82

>  <SMILES>  (82) 
CC(C)(C)OC(=O)[NH+](C(=O)[O-])C(I)(N=C=S)c1ccc2cc(C([NH-])=O)n(C(=O)[O-])c2c1

>  <Energy>  (82) 
100.04061381959667

>  <Genealogy>  (82) 
CC(C)(C)OC(=O)[NH+](C(=O)[O-])C(I)(N=C=S)c1ccc2cc(C([NH-])=O)n(C(=O)[O-])c2c1 (protonated)
CC(C)(C)OC(=O)[NH+](C(=O)[O-])C(I)(N=C=S)c1ccc2cc(C([NH-])=O)n(C(=O)[O-])c2c1 (3D coordinates assigned)
CC(C)(C)OC(=O)[NH+](C(=O)[O-])C(I)(N=C=S)c1ccc2cc(C([NH-])=O)n(C(=O)[O-])c2c1 (optimized conformer: 100.04061381959667 kcal/mol)

>  <smiles>  (82) 
CC(C)(C)OC(=O)N(C(=O)O)C(I)(N=C=S)c1ccc2cc(C(N)=O)n(C(=O)O)c2c1

>  <score_type>  (82) 
oracle

>  <origin>  (82) 
adg

>  <m_score__min__energy>  (82) 
-8.3200000000000003

>  <m_primary>  (82) 
energy

$$$$
82:0
     RDKit          3D

 38 40  0  0  0  0  0  0  0  0999 V2000
  139.4840  157.7500  134.9170 C   0  0  0  0  0  0  0  0  0  0  0  0
  139.9100  157.0130  133.6520 C   0  0  0  0  0  0  0  0  0  0  0  0
  140.6750  155.8550  133.9790 O   0  0  0  0  0  0  0  0  0  0  0  0
  140.5270  154.6250  133.3280 C   0  0  0  0  0  0  0  0  0  0  0  0
  139.3890  154.2340  132.9530 O   0  0  0  0  0  0  0  0  0  0  0  0
  141.6780  153.7950  133.1050 N   0  0  0  0  0  0  0  0  0  0  0  0
  142.9910  154.1590  133.1510 C   0  0  0  0  0  0  0  0  0  0  0  0
  143.5040  155.5370  133.2870 C   0  0  0  0  0  0  0  0  0  0  0  0
  142.8630  156.6060  132.5950 N   0  0  0  0  0  0  0  0  0  0  0  0
  144.4840  155.7890  134.0370 O   0  0  0  0  0  0  0  0  0  0  0  0
  143.8130  153.0480  132.9690 C   0  0  0  0  0  0  0  0  0  0  0  0
  142.9560  151.9830  132.8030 C   0  0  0  0  0  0  0  0  0  0  0  0
  143.2330  150.6330  132.6110 C   0  0  0  0  0  0  0  0  0  0  0  0
  142.1480  149.7460  132.5100 C   0  0  0  0  0  0  0  0  0  0  0  0
  140.8170  150.2220  132.6000 C   0  0  0  0  0  0  0  0  0  0  0  0
  139.6660  149.2570  132.5530 C   0  0  0  0  0  0  0  0  0  0  0  0
  139.4340  148.8260  131.1780 N   0  0  0  0  0  0  0  0  0  0  0  0
  139.1230  149.6050  130.1300 C   0  0  0  0  0  0  0  0  0  0  0  0
  138.9060  148.7840  129.0460 C   0  0  0  0  0  0  0  0  0  0  0  0
  139.0680  147.4960  129.4140 N   0  0  0  0  0  0  0  0  0  0  0  0
  139.3850  147.5590  130.7240 C   0  0  0  0  0  0  0  0  0  0  0  0
  140.5750  151.5970  132.8090 C   0  0  0  0  0  0  0  0  0  0  0  0
  141.6740  152.4600  132.8880 C   0  0  0  0  0  0  0  0  0  0  0  0
  139.8121  157.1823  135.8002 H   0  0  0  0  0  0  0  0  0  0  0  0
  139.9438  158.7492  134.9317 H   0  0  0  0  0  0  0  0  0  0  0  0
  138.3887  157.8502  134.9317 H   0  0  0  0  0  0  0  0  0  0  0  0
  139.0136  156.7078  133.0923 H   0  0  0  0  0  0  0  0  0  0  0  0
  140.5294  157.6862  133.0411 H   0  0  0  0  0  0  0  0  0  0  0  0
  141.8770  156.5150  132.2630 H   0  0  0  0  0  0  0  0  0  0  0  0
  144.9128  153.0266  132.9599 H   0  0  0  0  0  0  0  0  0  0  0  0
  144.2694  150.2713  132.5405 H   0  0  0  0  0  0  0  0  0  0  0  0
  142.3339  148.6723  132.3597 H   0  0  0  0  0  0  0  0  0  0  0  0
  139.8994  148.3805  133.1754 H   0  0  0  0  0  0  0  0  0  0  0  0
  138.7615  149.7538  132.9339 H   0  0  0  0  0  0  0  0  0  0  0  0
  139.0539  150.7028  130.1361 H   0  0  0  0  0  0  0  0  0  0  0  0
  138.6411  149.1259  128.0346 H   0  0  0  0  0  0  0  0  0  0  0  0
  139.5811  146.6760  131.3500 H   0  0  0  0  0  0  0  0  0  0  0  0
  139.5487  151.9804  132.9073 H   0  0  0  0  0  0  0  0  0  0  0  0
  1  2  1  0
  2  3  1  0
  3  4  1  0
  4  5  2  0
  4  6  1  0
  6  7  1  0
  7  8  1  0
  8  9  1  0
  8 10  2  0
  7 11  2  0
 11 12  1  0
 12 13  2  0
 13 14  1  0
 14 15  2  0
 15 16  1  0
 16 17  1  0
 17 18  1  0
 18 19  2  0
 19 20  1  0
 20 21  2  0
 15 22  1  0
 22 23  2  0
 23  6  1  0
 23 12  1  0
 21 17  1  0
  1 24  1  0
  1 25  1  0
  1 26  1  0
  2 27  1  0
  2 28  1  0
  9 29  1  0
 11 30  1  0
 13 31  1  0
 14 32  1  0
 16 33  1  0
 16 34  1  0
 18 35  1  0
 19 36  1  0
 21 37  1  0
 22 38  1  0
M  CHG  1   9  -1
M  END
>  <UniqueID>  (83) 
83

>  <SMILES>  (83) 
CCOC(=O)n1c(C([NH-])=O)cc2ccc(Cn3ccnc3)cc21

>  <Energy>  (83) 
102.16273371376184

>  <Genealogy>  (83) 
CCOC(=O)n1c(C([NH-])=O)cc2ccc(Cn3ccnc3)cc21 (protonated)
CCOC(=O)n1c(C([NH-])=O)cc2ccc(Cn3ccnc3)cc21 (3D coordinates assigned)
CCOC(=O)n1c(C([NH-])=O)cc2ccc(Cn3ccnc3)cc21 (optimized conformer: 102.16273371376184 kcal/mol)

>  <smiles>  (83) 
CCOC(=O)n1c(C(N)=O)cc2ccc(Cn3ccnc3)cc21

>  <score_type>  (83) 
oracle

>  <origin>  (83) 
adg

>  <m_score__min__energy>  (83) 
-6.4699999999999998

>  <m_primary>  (83) 
energy

$$$$
83:0
     RDKit          3D

 36 38  0  0  0  0  0  0  0  0999 V2000
  145.3040  155.8200  133.9060 C   0  0  0  0  0  0  0  0  0  0  0  0
  146.1100  156.7470  133.0540 C   0  0  0  0  0  0  0  0  0  0  0  0
  146.9120  156.2660  132.2080 O   0  0  0  0  0  0  0  0  0  0  0  0
  145.9890  158.1710  133.1940 N   0  0  0  0  0  0  0  0  0  0  0  0
  146.9960  159.0850  133.2880 C   0  0  0  0  0  0  0  0  0  0  0  0
  148.4400  158.8050  133.1350 C   0  0  0  0  0  0  0  0  0  0  0  0
  148.9660  158.3020  131.9090 N   0  0  0  0  0  0  0  0  0  0  0  0
  149.2270  159.0450  134.0900 O   0  0  0  0  0  0  0  0  0  0  0  0
  146.4780  160.3620  133.4960 C   0  0  0  0  0  0  0  0  0  0  0  0
  145.1110  160.2010  133.5240 C   0  0  0  0  0  0  0  0  0  0  0  0
  144.1030  161.1400  133.7200 C   0  0  0  0  0  0  0  0  0  0  0  0
  142.7740  160.6850  133.7370 C   0  0  0  0  0  0  0  0  0  0  0  0
  142.4750  159.3090  133.5630 C   0  0  0  0  0  0  0  0  0  0  0  0
  141.0700  158.8350  133.6030 C   0  0  0  0  0  0  0  0  0  0  0  0
  140.5980  158.1310  134.7220 C   0  0  0  0  0  0  0  0  0  0  0  0
  139.2740  157.6910  134.7550 C   0  0  0  0  0  0  0  0  0  0  0  0
  138.4470  157.9400  133.7070 N   0  0  0  0  0  0  0  0  0  0  0  0
  138.8680  158.6150  132.6030 C   0  0  0  0  0  0  0  0  0  0  0  0
  137.9170  158.8460  131.4710 C   0  0  0  0  0  0  0  0  0  0  0  0
  140.1930  159.0730  132.5280 C   0  0  0  0  0  0  0  0  0  0  0  0
  140.6260  159.7080  131.4080 F   0  0  0  0  0  0  0  0  0  0  0  0
  143.5300  158.3860  133.3750 C   0  0  0  0  0  0  0  0  0  0  0  0
  144.8420  158.8690  133.3430 C   0  0  0  0  0  0  0  0  0  0  0  0
  145.4941  156.0387  134.9672 H   0  0  0  0  0  0  0  0  0  0  0  0
  144.2346  155.9589  133.6889 H   0  0  0  0  0  0  0  0  0  0  0  0
  145.5902  154.7803  133.6889 H   0  0  0  0  0  0  0  0  0  0  0  0
  148.5820  157.4330  131.4760 H   0  0  0  0  0  0  0  0  0  0  0  0
  147.0416  161.2994  133.6130 H   0  0  0  0  0  0  0  0  0  0  0  0
  144.3394  162.2055  133.8574 H   0  0  0  0  0  0  0  0  0  0  0  0
  141.9553  161.4042  133.8870 H   0  0  0  0  0  0  0  0  0  0  0  0
  141.2690  157.9270  135.5694 H   0  0  0  0  0  0  0  0  0  0  0  0
  138.8997  157.1416  135.6314 H   0  0  0  0  0  0  0  0  0  0  0  0
  136.9216  159.0878  131.8719 H   0  0  0  0  0  0  0  0  0  0  0  0
  138.2772  159.6828  130.8545 H   0  0  0  0  0  0  0  0  0  0  0  0
  137.8532  157.9372  130.8545 H   0  0  0  0  0  0  0  0  0  0  0  0
  143.3231  157.3121  133.2566 H   0  0  0  0  0  0  0  0  0  0  0  0
  1  2  1  0
  2  3  2  0
  2  4  1  0
  4  5  1  0
  5  6  1  0
  6  7  1  0
  6  8  2  0
  5  9  2  0
  9 10  1  0
 10 11  2  0
 11 12  1  0
 12 13  2  0
 13 14  1  0
 14 15  2  0
 15 16  1  0
 16 17  2  0
 17 18  1  0
 18 19  1  0
 18 20  2  0
 20 21  1  0
 13 22  1  0
 22 23  2  0
 23  4  1  0
 23 10  1  0
 20 14  1  0
  1 24  1  0
  1 25  1  0
  1 26  1  0
  7 27  1  0
  9 28  1  0
 11 29  1  0
 12 30  1  0
 15 31  1  0
 16 32  1  0
 19 33  1  0
 19 34  1  0
 19 35  1  0
 22 36  1  0
M  CHG  1   7  -1
M  END
>  <UniqueID>  (84) 
84

>  <SMILES>  (84) 
CC(=O)n1c(C([NH-])=O)cc2ccc(-c3ccnc(C)c3F)cc21

>  <Energy>  (84) 
83.23494435387475

>  <Genealogy>  (84) 
CC(=O)n1c(C([NH-])=O)cc2ccc(-c3ccnc(C)c3F)cc21 (protonated)
CC(=O)n1c(C([NH-])=O)cc2ccc(-c3ccnc(C)c3F)cc21 (3D coordinates assigned)
CC(=O)n1c(C([NH-])=O)cc2ccc(-c3ccnc(C)c3F)cc21 (optimized conformer: 83.23494435387475 kcal/mol)

>  <smiles>  (84) 
CC(=O)n1c(C(N)=O)cc2ccc(-c3ccnc(C)c3F)cc21

>  <score_type>  (84) 
oracle

>  <origin>  (84) 
adg

>  <m_score__min__energy>  (84) 
-7.5899999999999999

>  <m_primary>  (84) 
energy

$$$$
84:0
     RDKit          3D

 44 46  0  0  0  0  0  0  0  0999 V2000
  145.9480  162.7740  134.8710 N   0  0  0  0  0  0  0  0  0  0  0  0
  144.9670  162.1200  134.0700 C   0  0  0  0  0  0  0  0  0  0  0  0
  144.0230  162.7940  133.5780 O   0  0  0  0  0  0  0  0  0  0  0  0
  145.0760  160.6790  133.7610 C   0  0  0  0  0  0  0  0  0  0  0  0
  146.2770  160.0560  133.4250 C   0  0  0  0  0  0  0  0  0  0  0  0
  145.9760  158.7190  133.3130 C   0  0  0  0  0  0  0  0  0  0  0  0
  146.7960  157.6400  132.9940 C   0  0  0  0  0  0  0  0  0  0  0  0
  146.2090  156.3650  132.9300 C   0  0  0  0  0  0  0  0  0  0  0  0
  144.8230  156.1930  133.1730 C   0  0  0  0  0  0  0  0  0  0  0  0
  144.2100  154.8160  133.1330 C   0  0  0  0  0  0  0  0  0  0  0  0
  144.2650  154.1370  134.5170 C   0  0  1  0  0  0  0  0  0  0  0  0
  145.4250  154.6710  135.3760 C   0  0  0  0  0  0  0  0  0  0  0  0
  145.2290  154.3470  136.7260 O   0  0  0  0  0  0  0  0  0  0  0  0
  142.9880  154.2700  135.2260 N   0  0  0  0  0  0  0  0  0  0  0  0
  142.4200  155.4840  135.7370 C   0  0  0  0  0  0  0  0  0  0  0  0
  142.8560  155.9780  136.8120 O   0  0  0  0  0  0  0  0  0  0  0  0
  141.3280  156.1710  135.0010 C   0  0  0  0  0  0  0  0  0  0  0  0
  140.9280  155.6950  133.7390 C   0  0  0  0  0  0  0  0  0  0  0  0
  139.8940  156.3330  133.0500 C   0  0  0  0  0  0  0  0  0  0  0  0
  139.2730  157.4110  133.5950 N   0  0  0  0  0  0  0  0  0  0  0  0
  139.6340  157.8980  134.8110 C   0  0  0  0  0  0  0  0  0  0  0  0
  140.6620  157.2920  135.5380 C   0  0  0  0  0  0  0  0  0  0  0  0
  140.9850  157.7990  136.7550 F   0  0  0  0  0  0  0  0  0  0  0  0
  144.0240  157.3120  133.4980 C   0  0  0  0  0  0  0  0  0  0  0  0
  144.6380  158.5680  133.5700 C   0  0  0  0  0  0  0  0  0  0  0  0
  144.0700  159.7640  133.8450 N   0  0  0  0  0  0  0  0  0  0  0  0
  142.6740  160.0060  134.0760 C   0  0  0  0  0  0  0  0  0  0  0  0
  141.7720  160.1140  132.9760 N   0  0  0  0  0  0  0  0  0  0  0  0
  142.2310  160.0930  135.2530 O   0  0  0  0  0  0  0  0  0  0  0  0
  146.9670  162.6650  134.6680 H   0  0  0  0  0  0  0  0  0  0  0  0
  147.2576  160.5329  133.2802 H   0  0  0  0  0  0  0  0  0  0  0  0
  147.8692  157.7812  132.7983 H   0  0  0  0  0  0  0  0  0  0  0  0
  146.8316  155.4909  132.6887 H   0  0  0  0  0  0  0  0  0  0  0  0
  143.1598  154.9004  132.8169 H   0  0  0  0  0  0  0  0  0  0  0  0
  144.7825  154.2019  132.4222 H   0  0  0  0  0  0  0  0  0  0  0  0
  144.4510  153.0672  134.3411 H   0  0  0  0  0  0  0  0  0  0  0  0
  146.3677  154.2223  135.0297 H   0  0  0  0  0  0  0  0  0  0  0  0
  145.4655  155.7657  135.2762 H   0  0  0  0  0  0  0  0  0  0  0  0
  144.3430  154.7150  136.9820 H   0  0  0  0  0  0  0  0  0  0  0  0
  141.4288  154.8217  133.2956 H   0  0  0  0  0  0  0  0  0  0  0  0
  139.5817  155.9612  132.0630 H   0  0  0  0  0  0  0  0  0  0  0  0
  139.1141  158.7743  135.2255 H   0  0  0  0  0  0  0  0  0  0  0  0
  142.9467  157.1991  133.6896 H   0  0  0  0  0  0  0  0  0  0  0  0
  142.0730  159.8600  132.0080 H   0  0  0  0  0  0  0  0  0  0  0  0
  1  2  1  0
  2  3  2  0
  2  4  1  0
  4  5  2  0
  5  6  1  0
  6  7  2  0
  7  8  1  0
  8  9  2  0
  9 10  1  0
 10 11  1  0
 11 12  1  0
 12 13  1  0
 11 14  1  0
 14 15  1  0
 15 16  2  0
 15 17  1  0
 17 18  2  0
 18 19  1  0
 19 20  2  0
 20 21  1  0
 21 22  2  0
 22 23  1  0
  9 24  1  0
 24 25  2  0
 25 26  1  0
 26 27  1  0
 27 28  1  0
 27 29  2  0
 26  4  1  0
 25  6  1  0
 22 17  1  0
  1 30  1  0
  5 31  1  0
  7 32  1  0
  8 33  1  0
 10 34  1  0
 10 35  1  0
 11 36  1  6
 12 37  1  0
 12 38  1  0
 13 39  1  0
 18 40  1  0
 19 41  1  0
 21 42  1  0
 24 43  1  0
 28 44  1  0
M  CHG  3   1  -1  14  -1  28  -1
M  END
>  <UniqueID>  (85) 
85

>  <SMILES>  (85) 
[NH-]C(=O)c1cc2ccc(C[C@@H](CO)[N-]C(=O)c3ccncc3F)cc2n1C([NH-])=O

>  <Energy>  (85) 
84.2125109181538

>  <Genealogy>  (85) 
[NH-]C(=O)c1cc2ccc(C[C@@H](CO)[N-]C(=O)c3ccncc3F)cc2n1C([NH-])=O (protonated)
[NH-]C(=O)c1cc2ccc(C[C@@H](CO)[N-]C(=O)c3ccncc3F)cc2n1C([NH-])=O (3D coordinates assigned)
[NH-]C(=O)c1cc2ccc(C[C@@H](CO)[N-]C(=O)c3ccncc3F)cc2n1C([NH-])=O (optimized conformer: 84.2125109181538 kcal/mol)

>  <smiles>  (85) 
NC(=O)c1cc2ccc(C[C@@H](CO)NC(=O)c3ccncc3F)cc2n1C(N)=O

>  <score_type>  (85) 
oracle

>  <origin>  (85) 
adg

>  <m_score__min__energy>  (85) 
-8.25

>  <m_primary>  (85) 
energy

$$$$
85:0
     RDKit          3D

 39 41  0  0  0  0  0  0  0  0999 V2000
  139.8650  149.8890  131.4710 C   0  0  0  0  0  0  0  0  0  0  0  0
  140.9850  149.4590  132.7890 S   0  0  0  0  0  0  0  0  0  0  0  0
  140.2460  149.5450  134.0930 O   0  0  0  0  0  0  0  0  0  0  0  0
  141.4840  148.0540  132.6030 O   0  0  0  0  0  0  0  0  0  0  0  0
  142.3010  150.5520  132.8290 O   0  0  0  0  0  0  0  0  0  0  0  0
  142.1980  151.9410  133.0000 C   0  0  0  0  0  0  0  0  0  0  0  0
  143.3760  152.6940  132.9800 C   0  0  0  0  0  0  0  0  0  0  0  0
  143.3380  154.0810  133.1470 C   0  0  0  0  0  0  0  0  0  0  0  0
  142.1130  154.7440  133.3350 C   0  0  0  0  0  0  0  0  0  0  0  0
  142.0700  156.2170  133.5140 C   0  0  0  0  0  0  0  0  0  0  0  0
  140.8430  156.8680  133.8100 C   0  0  0  0  0  0  0  0  0  0  0  0
  140.7930  158.2600  133.9930 C   0  0  0  0  0  0  0  0  0  0  0  0
  141.9780  158.9780  133.8670 C   0  0  0  0  0  0  0  0  0  0  0  0
  142.2150  160.3250  134.0160 C   0  0  0  0  0  0  0  0  0  0  0  0
  143.5800  160.4870  133.7850 C   0  0  0  0  0  0  0  0  0  0  0  0
  144.2490  161.8040  133.7550 C   0  0  0  0  0  0  0  0  0  0  0  0
  145.6260  161.9340  134.0940 N   0  0  0  0  0  0  0  0  0  0  0  0
  143.6070  162.8200  133.3760 O   0  0  0  0  0  0  0  0  0  0  0  0
  144.1640  159.2850  133.5140 N   0  0  0  0  0  0  0  0  0  0  0  0
  145.5600  159.0090  133.3160 C   0  0  0  0  0  0  0  0  0  0  0  0
  146.3240  159.7950  132.4040 N   0  0  0  0  0  0  0  0  0  0  0  0
  146.1240  158.0920  133.9700 O   0  0  0  0  0  0  0  0  0  0  0  0
  143.1680  158.3720  133.5650 C   0  0  0  0  0  0  0  0  0  0  0  0
  143.2530  156.9850  133.3950 C   0  0  0  0  0  0  0  0  0  0  0  0
  140.9290  153.9860  133.3490 C   0  0  0  0  0  0  0  0  0  0  0  0
  140.9680  152.5990  133.1810 C   0  0  0  0  0  0  0  0  0  0  0  0
  138.9186  150.2524  131.8979 H   0  0  0  0  0  0  0  0  0  0  0  0
  140.3145  150.6785  130.8508 H   0  0  0  0  0  0  0  0  0  0  0  0
  139.6707  149.0016  130.8508 H   0  0  0  0  0  0  0  0  0  0  0  0
  144.3422  152.1897  132.8313 H   0  0  0  0  0  0  0  0  0  0  0  0
  144.2742  154.6584  133.1312 H   0  0  0  0  0  0  0  0  0  0  0  0
  139.9206  156.2751  133.8970 H   0  0  0  0  0  0  0  0  0  0  0  0
  139.8456  158.7669  134.2288 H   0  0  0  0  0  0  0  0  0  0  0  0
  141.4830  161.1076  134.2645 H   0  0  0  0  0  0  0  0  0  0  0  0
  146.3730  161.7190  133.3980 H   0  0  0  0  0  0  0  0  0  0  0  0
  146.1700  160.8240  132.3230 H   0  0  0  0  0  0  0  0  0  0  0  0
  144.2169  156.5032  133.1741 H   0  0  0  0  0  0  0  0  0  0  0  0
  139.9619  154.4898  133.4937 H   0  0  0  0  0  0  0  0  0  0  0  0
  140.0330  152.0196  133.1904 H   0  0  0  0  0  0  0  0  0  0  0  0
  1  2  1  0
  2  3  2  0
  2  4  2  0
  2  5  1  0
  5  6  1  0
  6  7  2  0
  7  8  1  0
  8  9  2  0
  9 10  1  0
 10 11  2  0
 11 12  1  0
 12 13  2  0
 13 14  1  0
 14 15  2  0
 15 16  1  0
 16 17  1  0
 16 18  2  0
 15 19  1  0
 19 20  1  0
 20 21  1  0
 20 22  2  0
 19 23  1  0
 23 24  2  0
  9 25  1  0
 25 26  2  0
 26  6  1  0
 24 10  1  0
 23 13  1  0
  1 27  1  0
  1 28  1  0
  1 29  1  0
  7 30  1  0
  8 31  1  0
 11 32  1  0
 12 33  1  0
 14 34  1  0
 17 35  1  0
 21 36  1  0
 24 37  1  0
 25 38  1  0
 26 39  1  0
M  CHG  2  17  -1  21  -1
M  END
>  <UniqueID>  (86) 
86

>  <SMILES>  (86) 
CS(=O)(=O)Oc1ccc(-c2ccc3cc(C([NH-])=O)n(C([NH-])=O)c3c2)cc1

>  <Energy>  (86) 
82.36353081991835

>  <Genealogy>  (86) 
CS(=O)(=O)Oc1ccc(-c2ccc3cc(C([NH-])=O)n(C([NH-])=O)c3c2)cc1 (protonated)
CS(=O)(=O)Oc1ccc(-c2ccc3cc(C([NH-])=O)n(C([NH-])=O)c3c2)cc1 (3D coordinates assigned)
CS(=O)(=O)Oc1ccc(-c2ccc3cc(C([NH-])=O)n(C([NH-])=O)c3c2)cc1 (optimized conformer: 82.36353081991835 kcal/mol)

>  <smiles>  (86) 
CS(=O)(=O)Oc1ccc(-c2ccc3cc(C(N)=O)n(C(N)=O)c3c2)cc1

>  <score_type>  (86) 
oracle

>  <origin>  (86) 
adg

>  <m_score__min__energy>  (86) 
-8.5500000000000007

>  <m_primary>  (86) 
energy

$$$$
86:0
     RDKit          3D

 43 45  0  0  0  0  0  0  0  0999 V2000
  146.9030  155.6240  132.2570 C   0  0  0  0  0  0  0  0  0  0  0  0
  147.3400  156.6440  133.2610 C   0  0  0  0  0  0  0  0  0  0  0  0
  148.0810  156.2910  134.2170 O   0  0  0  0  0  0  0  0  0  0  0  0
  146.9820  158.0270  133.1100 N   0  0  0  0  0  0  0  0  0  0  0  0
  147.7500  159.0480  132.6340 C   0  0  0  0  0  0  0  0  0  0  0  0
  149.0940  158.9130  132.0360 C   0  0  0  0  0  0  0  0  0  0  0  0
  149.8250  157.7000  132.2000 N   0  0  0  0  0  0  0  0  0  0  0  0
  149.6170  159.8690  131.4060 O   0  0  0  0  0  0  0  0  0  0  0  0
  147.0550  160.2540  132.7090 C   0  0  0  0  0  0  0  0  0  0  0  0
  145.8270  159.9350  133.2410 C   0  0  0  0  0  0  0  0  0  0  0  0
  144.7400  160.7490  133.5430 C   0  0  0  0  0  0  0  0  0  0  0  0
  143.6030  160.1490  134.1060 C   0  0  0  0  0  0  0  0  0  0  0  0
  143.5620  158.7490  134.3550 C   0  0  0  0  0  0  0  0  0  0  0  0
  142.3520  158.0950  135.0040 C   0  0  1  0  0  0  0  0  0  0  0  0
  141.0330  158.6820  134.4580 C   0  0  0  0  0  0  0  0  0  0  0  0
  140.5490  158.0100  133.1560 C   0  0  0  0  0  0  0  0  0  0  0  0
  140.7130  156.5280  133.1260 N   0  0  2  0  0  0  0  0  0  0  0  0
  139.4940  155.8760  132.6140 C   0  0  0  0  0  0  0  0  0  0  0  0
  141.0820  155.9430  134.4330 C   0  0  0  0  0  0  0  0  0  0  0  0
  142.3980  156.5460  134.9410 C   0  0  0  0  0  0  0  0  0  0  0  0
  144.6950  157.9610  134.0410 C   0  0  0  0  0  0  0  0  0  0  0  0
  145.8080  158.5850  133.4700 C   0  0  0  0  0  0  0  0  0  0  0  0
  146.5219  154.7345  132.7800 H   0  0  0  0  0  0  0  0  0  0  0  0
  146.1074  156.0476  131.6265 H   0  0  0  0  0  0  0  0  0  0  0  0
  147.7585  155.3402  131.6265 H   0  0  0  0  0  0  0  0  0  0  0  0
  149.7170  157.1220  133.0630 H   0  0  0  0  0  0  0  0  0  0  0  0
  147.4125  161.2495  132.4069 H   0  0  0  0  0  0  0  0  0  0  0  0
  144.7708  161.8308  133.3464 H   0  0  0  0  0  0  0  0  0  0  0  0
  142.7310  160.7702  134.3584 H   0  0  0  0  0  0  0  0  0  0  0  0
  142.3902  158.3409  136.0755 H   0  0  0  0  0  0  0  0  0  0  0  0
  141.1848  159.7534  134.2605 H   0  0  0  0  0  0  0  0  0  0  0  0
  140.2604  158.5020  135.2200 H   0  0  0  0  0  0  0  0  0  0  0  0
  141.1194  158.4357  132.3173 H   0  0  0  0  0  0  0  0  0  0  0  0
  139.4689  158.2063  133.0859 H   0  0  0  0  0  0  0  0  0  0  0  0
  141.4800  156.2950  132.4500 H   0  0  0  0  0  0  0  0  0  0  0  0
  138.8732  155.5440  133.4592 H   0  0  0  0  0  0  0  0  0  0  0  0
  138.9260  156.5908  132.0004 H   0  0  0  0  0  0  0  0  0  0  0  0
  139.7732  155.0068  132.0004 H   0  0  0  0  0  0  0  0  0  0  0  0
  141.2018  154.8552  134.3215 H   0  0  0  0  0  0  0  0  0  0  0  0
  140.2860  156.1652  135.1590 H   0  0  0  0  0  0  0  0  0  0  0  0
  143.2101  156.2438  134.2634 H   0  0  0  0  0  0  0  0  0  0  0  0
  142.5661  156.1732  135.9622 H   0  0  0  0  0  0  0  0  0  0  0  0
  144.6997  156.8796  134.2422 H   0  0  0  0  0  0  0  0  0  0  0  0
  1  2  1  0
  2  3  2  0
  2  4  1  0
  4  5  1  0
  5  6  1  0
  6  7  1  0
  6  8  2  0
  5  9  2  0
  9 10  1  0
 10 11  2  0
 11 12  1  0
 12 13  2  0
 13 14  1  0
 14 15  1  0
 15 16  1  0
 16 17  1  0
 17 18  1  0
 17 19  1  0
 19 20  1  0
 13 21  1  0
 21 22  2  0
 22  4  1  0
 22 10  1  0
 20 14  1  0
  1 23  1  0
  1 24  1  0
  1 25  1  0
  7 26  1  0
  9 27  1  0
 11 28  1  0
 12 29  1  0
 14 30  1  1
 15 31  1  0
 15 32  1  0
 16 33  1  0
 16 34  1  0
 17 35  1  6
 18 36  1  0
 18 37  1  0
 18 38  1  0
 19 39  1  0
 19 40  1  0
 20 41  1  0
 20 42  1  0
 21 43  1  0
M  CHG  2   7  -1  17   1
M  END
>  <UniqueID>  (87) 
87

>  <SMILES>  (87) 
CC(=O)n1c(C([NH-])=O)cc2ccc(C3CC[NH+](C)CC3)cc21

>  <Energy>  (87) 
93.26628624833418

>  <Genealogy>  (87) 
CC(=O)n1c(C([NH-])=O)cc2ccc(C3CC[NH+](C)CC3)cc21 (protonated)
CC(=O)n1c(C([NH-])=O)cc2ccc(C3CC[NH+](C)CC3)cc21 (3D coordinates assigned)
CC(=O)n1c(C([NH-])=O)cc2ccc(C3CC[NH+](C)CC3)cc21 (nonaromatic ring conformer: 93.26628624833418 kcal/mol)

>  <smiles>  (87) 
CC(=O)n1c(C(N)=O)cc2ccc(C3CCN(C)CC3)cc21

>  <score_type>  (87) 
oracle

>  <origin>  (87) 
adg

>  <m_score__min__energy>  (87) 
-7.0199999999999996

>  <m_primary>  (87) 
energy

$$$$
87:0
     RDKit          3D

 41 43  0  0  0  0  0  0  0  0999 V2000
  137.5170  159.0620  131.1420 C   0  0  0  0  0  0  0  0  0  0  0  0
  138.9620  159.0260  131.6680 C   0  0  0  0  0  0  0  0  0  0  0  0
  139.4710  160.4640  131.8620 C   0  0  0  0  0  0  0  0  0  0  0  0
  139.2040  158.1820  132.9650 C   0  0  2  0  0  0  0  0  0  0  0  0
  137.9800  157.8620  133.5840 O   0  0  0  0  0  0  0  0  0  0  0  0
  140.2050  158.7110  134.0120 C   0  0  0  0  0  0  0  0  0  0  0  0
  140.9150  157.3520  133.9930 C   0  0  2  0  0  0  0  0  0  0  0  0
  142.4140  157.3150  133.7420 C   0  0  0  0  0  0  0  0  0  0  0  0
  143.1240  156.1110  133.4950 C   0  0  0  0  0  0  0  0  0  0  0  0
  144.5150  156.1200  133.2920 C   0  0  0  0  0  0  0  0  0  0  0  0
  145.1760  157.3410  133.3590 C   0  0  0  0  0  0  0  0  0  0  0  0
  146.5080  157.6350  133.1850 C   0  0  0  0  0  0  0  0  0  0  0  0
  146.6080  159.0130  133.3620 C   0  0  0  0  0  0  0  0  0  0  0  0
  147.8920  159.7450  133.3460 C   0  0  0  0  0  0  0  0  0  0  0  0
  148.0680  160.8480  132.4610 N   0  0  0  0  0  0  0  0  0  0  0  0
  148.8490  159.3830  134.0780 O   0  0  0  0  0  0  0  0  0  0  0  0
  145.3830  159.5500  133.6290 N   0  0  0  0  0  0  0  0  0  0  0  0
  145.0520  160.9380  133.8030 C   0  0  0  0  0  0  0  0  0  0  0  0
  145.9450  161.7720  134.1110 O   0  0  0  0  0  0  0  0  0  0  0  0
  143.7390  161.3700  133.6600 O   0  0  0  0  0  0  0  0  0  0  0  0
  144.5180  158.5110  133.6260 C   0  0  0  0  0  0  0  0  0  0  0  0
  143.1310  158.5330  133.8140 C   0  0  0  0  0  0  0  0  0  0  0  0
  140.0480  156.9070  132.8150 C   0  0  0  0  0  0  0  0  0  0  0  0
  136.8180  159.0794  131.9912 H   0  0  0  0  0  0  0  0  0  0  0  0
  137.3722  159.9640  130.5293 H   0  0  0  0  0  0  0  0  0  0  0  0
  137.3274  158.1683  130.5293 H   0  0  0  0  0  0  0  0  0  0  0  0
  139.5358  158.4954  130.8939 H   0  0  0  0  0  0  0  0  0  0  0  0
  139.5487  160.6835  132.9371 H   0  0  0  0  0  0  0  0  0  0  0  0
  140.4609  160.5689  131.3939 H   0  0  0  0  0  0  0  0  0  0  0  0
  138.7675  161.1683  131.3939 H   0  0  0  0  0  0  0  0  0  0  0  0
  137.5330  157.1830  133.0130 H   0  0  0  0  0  0  0  0  0  0  0  0
  139.7514  158.9702  134.9800 H   0  0  0  0  0  0  0  0  0  0  0  0
  140.7652  159.6411  133.8354 H   0  0  0  0  0  0  0  0  0  0  0  0
  140.9597  156.7740  134.9278 H   0  0  0  0  0  0  0  0  0  0  0  0
  142.5777  155.1568  133.4619 H   0  0  0  0  0  0  0  0  0  0  0  0
  145.0637  155.1891  133.0864 H   0  0  0  0  0  0  0  0  0  0  0  0
  147.3217  156.9314  132.9549 H   0  0  0  0  0  0  0  0  0  0  0  0
  147.5010  161.7180  132.5670 H   0  0  0  0  0  0  0  0  0  0  0  0
  142.6079  159.4798  134.0140 H   0  0  0  0  0  0  0  0  0  0  0  0
  139.4913  155.9750  132.9925 H   0  0  0  0  0  0  0  0  0  0  0  0
  140.5064  156.6501  131.8487 H   0  0  0  0  0  0  0  0  0  0  0  0
  1  2  1  0
  2  3  1  0
  2  4  1  0
  4  5  1  1
  4  6  1  0
  6  7  1  0
  7  8  1  0
  8  9  2  0
  9 10  1  0
 10 11  2  0
 11 12  1  0
 12 13  2  0
 13 14  1  0
 14 15  1  0
 14 16  2  0
 13 17  1  0
 17 18  1  0
 18 19  2  0
 18 20  1  0
 17 21  1  0
 21 22  2  0
  7 23  1  0
 23  4  1  0
 22  8  1  0
 21 11  1  0
  1 24  1  0
  1 25  1  0
  1 26  1  0
  2 27  1  0
  3 28  1  0
  3 29  1  0
  3 30  1  0
  5 31  1  0
  6 32  1  0
  6 33  1  0
  7 34  1  1
  9 35  1  0
 10 36  1  0
 12 37  1  0
 15 38  1  0
 22 39  1  0
 23 40  1  0
 23 41  1  0
M  CHG  2  15  -1  20  -1
M  END
>  <UniqueID>  (88) 
88

>  <SMILES>  (88) 
CC(C)C1(O)CC(c2ccc3cc(C([NH-])=O)n(C(=O)[O-])c3c2)C1

>  <Energy>  (88) 
148.5115693790277

>  <Genealogy>  (88) 
CC(C)C1(O)CC(c2ccc3cc(C([NH-])=O)n(C(=O)[O-])c3c2)C1 (protonated)
CC(C)C1(O)CC(c2ccc3cc(C([NH-])=O)n(C(=O)[O-])c3c2)C1 (3D coordinates assigned)
CC(C)C1(O)CC(c2ccc3cc(C([NH-])=O)n(C(=O)[O-])c3c2)C1 (nonaromatic ring conformer: 148.5115693790277 kcal/mol)

>  <smiles>  (88) 
CC(C)C1(O)CC(c2ccc3cc(C(N)=O)n(C(=O)O)c3c2)C1

>  <score_type>  (88) 
oracle

>  <origin>  (88) 
adg

>  <m_score__min__energy>  (88) 
-8.2899999999999991

>  <m_primary>  (88) 
energy

$$$$
88:0
     RDKit          3D

 64 66  0  0  0  0  0  0  0  0999 V2000
  144.5490  155.1440  133.0360 C   0  0  0  0  0  0  0  0  0  0  0  0
  144.3050  154.9480  134.5280 C   0  0  0  0  0  0  0  0  0  0  0  0
  145.4410  155.3620  135.2840 O   0  0  0  0  0  0  0  0  0  0  0  0
  146.6970  154.7510  135.1920 C   0  0  0  0  0  0  0  0  0  0  0  0
  147.0580  153.9020  136.0540 O   0  0  0  0  0  0  0  0  0  0  0  0
  147.5880  155.1090  134.1240 N   0  0  0  0  0  0  0  0  0  0  0  0
  148.4690  154.3000  133.4690 C   0  0  0  0  0  0  0  0  0  0  0  0
  148.5690  152.8340  133.6120 C   0  0  0  0  0  0  0  0  0  0  0  0
  148.8500  152.2280  134.8760 N   0  0  0  0  0  0  0  0  0  0  0  0
  148.3520  152.0990  132.6120 O   0  0  0  0  0  0  0  0  0  0  0  0
  149.2460  155.0370  132.5800 C   0  0  0  0  0  0  0  0  0  0  0  0
  148.8010  156.3340  132.6970 C   0  0  0  0  0  0  0  0  0  0  0  0
  149.2220  157.4860  132.0420 C   0  0  0  0  0  0  0  0  0  0  0  0
  148.5950  158.6990  132.3730 C   0  0  0  0  0  0  0  0  0  0  0  0
  147.5800  158.7400  133.3600 C   0  0  0  0  0  0  0  0  0  0  0  0
  146.8790  160.0340  133.6750 C   0  0  0  0  0  0  0  0  0  0  0  0
  145.3890  159.8580  133.5550 C   0  0  0  0  0  0  0  0  0  0  0  0
  144.8600  158.6630  133.0410 C   0  0  0  0  0  0  0  0  0  0  0  0
  143.4770  158.4750  132.9760 C   0  0  0  0  0  0  0  0  0  0  0  0
  142.6060  159.4870  133.3950 C   0  0  0  0  0  0  0  0  0  0  0  0
  141.2290  159.2790  133.2960 O   0  0  0  0  0  0  0  0  0  0  0  0
  140.3810  157.9640  134.0830 Si  0  0  0  0  0  4  0  0  0  0  0  0
  140.8370  156.3020  133.3530 C   0  0  0  0  0  0  0  0  0  0  0  0
  138.5570  158.2170  133.7520 C   0  0  0  0  0  0  0  0  0  0  0  0
  140.7090  157.9950  135.9620 C   0  0  0  0  0  0  0  0  0  0  0  0
  141.9070  157.0850  136.2800 C   0  0  0  0  0  0  0  0  0  0  0  0
  141.0250  159.4340  136.4080 C   0  0  0  0  0  0  0  0  0  0  0  0
  139.4710  157.4930  136.7260 C   0  0  0  0  0  0  0  0  0  0  0  0
  143.1300  160.6710  133.9330 C   0  0  0  0  0  0  0  0  0  0  0  0
  144.5130  160.8550  134.0130 C   0  0  0  0  0  0  0  0  0  0  0  0
  147.1810  157.5510  134.0080 C   0  0  0  0  0  0  0  0  0  0  0  0
  147.8020  156.3520  133.6380 C   0  0  0  0  0  0  0  0  0  0  0  0
  145.3990  155.8268  132.8901 H   0  0  0  0  0  0  0  0  0  0  0  0
  144.7745  154.1731  132.5707 H   0  0  0  0  0  0  0  0  0  0  0  0
  143.6496  155.5735  132.5707 H   0  0  0  0  0  0  0  0  0  0  0  0
  143.4321  155.5442  134.8324 H   0  0  0  0  0  0  0  0  0  0  0  0
  144.1236  153.8800  134.7190 H   0  0  0  0  0  0  0  0  0  0  0  0
  148.9700  151.1930  134.9450 H   0  0  0  0  0  0  0  0  0  0  0  0
  148.8730  152.7940  135.7520 H   0  0  0  0  0  0  0  0  0  0  0  0
  150.0454  154.6626  131.9237 H   0  0  0  0  0  0  0  0  0  0  0  0
  150.0217  157.4488  131.2876 H   0  0  0  0  0  0  0  0  0  0  0  0
  148.8951  159.6252  131.8610 H   0  0  0  0  0  0  0  0  0  0  0  0
  147.1274  160.3418  134.7014 H   0  0  0  0  0  0  0  0  0  0  0  0
  147.2089  160.8047  132.9628 H   0  0  0  0  0  0  0  0  0  0  0  0
  145.5374  157.8715  132.6880 H   0  0  0  0  0  0  0  0  0  0  0  0
  143.0709  157.5269  132.5936 H   0  0  0  0  0  0  0  0  0  0  0  0
  141.0334  155.5863  134.1649 H   0  0  0  0  0  0  0  0  0  0  0  0
  140.0067  155.9338  132.7325 H   0  0  0  0  0  0  0  0  0  0  0  0
  141.7390  156.4091  132.7325 H   0  0  0  0  0  0  0  0  0  0  0  0
  138.0178  158.2918  134.7079 H   0  0  0  0  0  0  0  0  0  0  0  0
  138.4138  159.1436  133.1768 H   0  0  0  0  0  0  0  0  0  0  0  0
  138.1670  157.3643  133.1768 H   0  0  0  0  0  0  0  0  0  0  0  0
  142.0219  156.9977  137.3705 H   0  0  0  0  0  0  0  0  0  0  0  0
  141.7348  156.0879  135.8485 H   0  0  0  0  0  0  0  0  0  0  0  0
  142.8213  157.5184  135.8485 H   0  0  0  0  0  0  0  0  0  0  0  0
  141.0358  159.4833  137.5068 H   0  0  0  0  0  0  0  0  0  0  0  0
  142.0097  159.7309  136.0179 H   0  0  0  0  0  0  0  0  0  0  0  0
  140.2552  160.1162  136.0179 H   0  0  0  0  0  0  0  0  0  0  0  0
  139.6532  157.5669  137.8083 H   0  0  0  0  0  0  0  0  0  0  0  0
  138.6000  158.1090  136.4579 H   0  0  0  0  0  0  0  0  0  0  0  0
  139.2750  156.4443  136.4579 H   0  0  0  0  0  0  0  0  0  0  0  0
  142.4505  161.4574  134.2932 H   0  0  0  0  0  0  0  0  0  0  0  0
  144.9174  161.7859  134.4371 H   0  0  0  0  0  0  0  0  0  0  0  0
  146.4017  157.5662  134.7842 H   0  0  0  0  0  0  0  0  0  0  0  0
  1  2  1  0
  2  3  1  0
  3  4  1  0
  4  5  2  0
  4  6  1  0
  6  7  1  0
  7  8  1  0
  8  9  1  0
  8 10  2  0
  7 11  2  0
 11 12  1  0
 12 13  2  0
 13 14  1  0
 14 15  2  0
 15 16  1  0
 16 17  1  0
 17 18  2  0
 18 19  1  0
 19 20  2  0
 20 21  1  0
 21 22  1  0
 22 23  1  0
 22 24  1  0
 22 25  1  0
 25 26  1  0
 25 27  1  0
 25 28  1  0
 20 29  1  0
 29 30  2  0
 15 31  1  0
 31 32  2  0
 32  6  1  0
 32 12  1  0
 30 17  1  0
  1 33  1  0
  1 34  1  0
  1 35  1  0
  2 36  1  0
  2 37  1  0
  9 38  1  0
  9 39  1  0
 11 40  1  0
 13 41  1  0
 14 42  1  0
 16 43  1  0
 16 44  1  0
 18 45  1  0
 19 46  1  0
 23 47  1  0
 23 48  1  0
 23 49  1  0
 24 50  1  0
 24 51  1  0
 24 52  1  0
 26 53  1  0
 26 54  1  0
 26 55  1  0
 27 56  1  0
 27 57  1  0
 27 58  1  0
 28 59  1  0
 28 60  1  0
 28 61  1  0
 29 62  1  0
 30 63  1  0
 31 64  1  0
M  END
>  <UniqueID>  (89) 
89

>  <SMILES>  (89) 
CCOC(=O)n1c(C(N)=O)cc2ccc(Cc3ccc(O[Si](C)(C)C(C)(C)C)cc3)cc21

>  <Energy>  (89) 
86.05185789446278

>  <Genealogy>  (89) 
CCOC(=O)n1c(C(N)=O)cc2ccc(Cc3ccc(O[Si](C)(C)C(C)(C)C)cc3)cc21 (3D coordinates assigned)
CCOC(=O)n1c(C(N)=O)cc2ccc(Cc3ccc(O[Si](C)(C)C(C)(C)C)cc3)cc21 (optimized conformer: 86.05185789446278 kcal/mol)

>  <smiles>  (89) 
CCOC(=O)n1c(C(N)=O)cc2ccc(Cc3ccc(O[Si](C)(C)C(C)(C)C)cc3)cc21

>  <score_type>  (89) 
oracle

>  <origin>  (89) 
adg

>  <m_score__min__energy>  (89) 
-9.4800000000000004

>  <m_primary>  (89) 
energy

$$$$
89:0
     RDKit          3D

 39 41  0  0  0  0  0  0  0  0999 V2000
  150.0510  160.0930  130.3210 C   0  0  0  0  0  0  0  0  0  0  0  0
  148.8660  159.4580  130.9230 N   0  0  0  0  0  0  0  0  0  0  0  0
  149.2650  158.5490  132.0100 C   0  0  0  0  0  0  0  0  0  0  0  0
  148.0460  157.7440  132.4520 C   0  0  0  0  0  0  0  0  0  0  0  0
  146.9010  158.6280  132.7220 N   0  0  0  0  0  0  0  0  0  0  0  0
  145.7140  158.0770  133.3320 C   0  0  0  0  0  0  0  0  0  0  0  0
  145.7380  156.7770  133.9020 C   0  0  0  0  0  0  0  0  0  0  0  0
  144.5830  156.2260  134.4830 C   0  0  0  0  0  0  0  0  0  0  0  0
  143.4250  156.9970  134.4950 C   0  0  0  0  0  0  0  0  0  0  0  0
  142.1720  156.7020  134.9830 C   0  0  0  0  0  0  0  0  0  0  0  0
  141.4070  157.8380  134.7400 C   0  0  0  0  0  0  0  0  0  0  0  0
  140.0140  157.9890  135.2030 C   0  0  0  0  0  0  0  0  0  0  0  0
  138.9540  158.2490  134.2840 N   0  0  0  0  0  0  0  0  0  0  0  0
  139.7640  157.9480  136.4360 O   0  0  0  0  0  0  0  0  0  0  0  0
  142.1470  158.7940  134.1110 N   0  0  0  0  0  0  0  0  0  0  0  0
  141.6880  160.0610  133.6090 C   0  0  0  0  0  0  0  0  0  0  0  0
  142.3970  161.0940  133.7340 O   0  0  0  0  0  0  0  0  0  0  0  0
  140.4520  160.1590  132.9810 O   0  0  0  0  0  0  0  0  0  0  0  0
  143.3850  158.2630  133.9700 C   0  0  0  0  0  0  0  0  0  0  0  0
  144.5140  158.8270  133.3610 C   0  0  0  0  0  0  0  0  0  0  0  0
  147.0710  160.0840  132.6180 C   0  0  0  0  0  0  0  0  0  0  0  0
  147.8730  160.4780  131.3560 C   0  0  0  0  0  0  0  0  0  0  0  0
  150.7195  160.4513  131.1177 H   0  0  0  0  0  0  0  0  0  0  0  0
  150.5834  159.3593  129.6979 H   0  0  0  0  0  0  0  0  0  0  0  0
  149.7350  160.9426  129.6979 H   0  0  0  0  0  0  0  0  0  0  0  0
  150.0488  157.8656  131.6512 H   0  0  0  0  0  0  0  0  0  0  0  0
  149.6559  159.1303  132.8581 H   0  0  0  0  0  0  0  0  0  0  0  0
  147.7740  157.0360  131.6552 H   0  0  0  0  0  0  0  0  0  0  0  0
  148.2984  157.2044  133.3767 H   0  0  0  0  0  0  0  0  0  0  0  0
  146.6710  156.1945  133.8887 H   0  0  0  0  0  0  0  0  0  0  0  0
  144.5942  155.2147  134.9156 H   0  0  0  0  0  0  0  0  0  0  0  0
  141.8455  155.7675  135.4627 H   0  0  0  0  0  0  0  0  0  0  0  0
  137.9730  158.3370  134.6250 H   0  0  0  0  0  0  0  0  0  0  0  0
  139.1520  158.4610  133.2810 H   0  0  0  0  0  0  0  0  0  0  0  0
  144.4686  159.8314  132.9149 H   0  0  0  0  0  0  0  0  0  0  0  0
  146.0786  160.5562  132.5714 H   0  0  0  0  0  0  0  0  0  0  0  0
  147.6304  160.4276  133.5006 H   0  0  0  0  0  0  0  0  0  0  0  0
  147.1625  160.6398  130.5320 H   0  0  0  0  0  0  0  0  0  0  0  0
  148.4411  161.3845  131.6120 H   0  0  0  0  0  0  0  0  0  0  0  0
  1  2  1  0
  2  3  1  0
  3  4  1  0
  4  5  1  0
  5  6  1  0
  6  7  2  0
  7  8  1  0
  8  9  2  0
  9 10  1  0
 10 11  2  0
 11 12  1  0
 12 13  1  0
 12 14  2  0
 11 15  1  0
 15 16  1  0
 16 17  2  0
 16 18  1  0
 15 19  1  0
 19 20  2  0
  5 21  1  0
 21 22  1  0
 22  2  1  0
 20  6  1  0
 19  9  1  0
  1 23  1  0
  1 24  1  0
  1 25  1  0
  3 26  1  0
  3 27  1  0
  4 28  1  0
  4 29  1  0
  7 30  1  0
  8 31  1  0
 10 32  1  0
 13 33  1  0
 13 34  1  0
 20 35  1  0
 21 36  1  0
 21 37  1  0
 22 38  1  0
 22 39  1  0
M  CHG  1  18  -1
M  END
>  <UniqueID>  (90) 
90

>  <SMILES>  (90) 
CN1CCN(c2ccc3cc(C(N)=O)n(C(=O)[O-])c3c2)CC1

>  <Energy>  (90) 
89.4102470499828

>  <Genealogy>  (90) 
CN1CCN(c2ccc3cc(C(N)=O)n(C(=O)[O-])c3c2)CC1 (protonated)
CN1CCN(c2ccc3cc(C(N)=O)n(C(=O)[O-])c3c2)CC1 (3D coordinates assigned)
CN1CCN(c2ccc3cc(C(N)=O)n(C(=O)[O-])c3c2)CC1 (nonaromatic ring conformer: 89.4102470499828 kcal/mol)

>  <smiles>  (90) 
CN1CCN(c2ccc3cc(C(N)=O)n(C(=O)O)c3c2)CC1

>  <score_type>  (90) 
oracle

>  <origin>  (90) 
adg

>  <m_score__min__energy>  (90) 
-6.9100000000000001

>  <m_primary>  (90) 
energy

$$$$
90:0
     RDKit          3D

 25 26  0  0  0  0  0  0  0  0999 V2000
  147.3580  155.5070  131.8720 N   0  0  0  0  0  0  0  0  0  0  0  0
  146.5730  155.8180  133.0250 C   0  0  0  0  0  0  0  0  0  0  0  0
  146.3820  154.9320  133.9000 O   0  0  0  0  0  0  0  0  0  0  0  0
  146.0400  157.1770  133.2400 C   0  0  0  0  0  0  0  0  0  0  0  0
  144.6870  157.4460  133.4280 C   0  0  0  0  0  0  0  0  0  0  0  0
  144.6150  158.8000  133.6600 C   0  0  0  0  0  0  0  0  0  0  0  0
  143.5080  159.6050  133.9100 C   0  0  0  0  0  0  0  0  0  0  0  0
  143.7200  160.9820  134.0840 C   0  0  0  0  0  0  0  0  0  0  0  0
  145.0230  161.5340  133.9800 C   0  0  0  0  0  0  0  0  0  0  0  0
  145.2430  163.0080  134.2040 C   0  0  0  0  0  0  0  0  0  0  0  0
  144.3080  163.7540  133.5080 F   0  0  0  0  0  0  0  0  0  0  0  0
  146.5090  163.3510  133.7660 F   0  0  0  0  0  0  0  0  0  0  0  0
  145.1310  163.3210  135.5480 F   0  0  0  0  0  0  0  0  0  0  0  0
  146.1250  160.6790  133.7470 C   0  0  0  0  0  0  0  0  0  0  0  0
  145.8880  159.3060  133.5970 C   0  0  0  0  0  0  0  0  0  0  0  0
  146.7770  158.3200  133.3370 N   0  0  0  0  0  0  0  0  0  0  0  0
  148.1850  158.4700  133.0840 C   0  0  0  0  0  0  0  0  0  0  0  0
  148.9280  159.0400  133.9250 O   0  0  0  0  0  0  0  0  0  0  0  0
  148.7390  157.9930  131.9020 O   0  0  0  0  0  0  0  0  0  0  0  0
  147.6980  154.5320  131.7180 H   0  0  0  0  0  0  0  0  0  0  0  0
  147.6730  156.2550  131.2170 H   0  0  0  0  0  0  0  0  0  0  0  0
  143.8535  156.7289  133.3975 H   0  0  0  0  0  0  0  0  0  0  0  0
  142.4971  159.1755  133.9695 H   0  0  0  0  0  0  0  0  0  0  0  0
  142.8664  161.6402  134.3034 H   0  0  0  0  0  0  0  0  0  0  0  0
  147.1462  161.0830  133.6848 H   0  0  0  0  0  0  0  0  0  0  0  0
  1  2  1  0
  2  3  2  0
  2  4  1  0
  4  5  2  0
  5  6  1  0
  6  7  2  0
  7  8  1  0
  8  9  2  0
  9 10  1  0
 10 11  1  0
 10 12  1  0
 10 13  1  0
  9 14  1  0
 14 15  2  0
 15 16  1  0
 16 17  1  0
 17 18  2  0
 17 19  1  0
 16  4  1  0
 15  6  1  0
  1 20  1  0
  1 21  1  0
  5 22  1  0
  7 23  1  0
  8 24  1  0
 14 25  1  0
M  CHG  1  19  -1
M  END
>  <UniqueID>  (91) 
91

>  <SMILES>  (91) 
NC(=O)c1cc2ccc(C(F)(F)F)cc2n1C(=O)[O-]

>  <Energy>  (91) 
66.3201135156078

>  <Genealogy>  (91) 
NC(=O)c1cc2ccc(C(F)(F)F)cc2n1C(=O)[O-] (protonated)
NC(=O)c1cc2ccc(C(F)(F)F)cc2n1C(=O)[O-] (3D coordinates assigned)
NC(=O)c1cc2ccc(C(F)(F)F)cc2n1C(=O)[O-] (optimized conformer: 66.3201135156078 kcal/mol)

>  <smiles>  (91) 
NC(=O)c1cc2ccc(C(F)(F)F)cc2n1C(=O)O

>  <score_type>  (91) 
oracle

>  <origin>  (91) 
adg

>  <m_score__min__energy>  (91) 
-5.3300000000000001

>  <m_primary>  (91) 
energy

$$$$
91:0
     RDKit          3D

 34 36  0  0  0  0  0  0  0  0999 V2000
  144.5910  154.4360  131.7410 C   0  0  0  0  0  0  0  0  0  0  0  0
  145.5730  154.1850  132.8420 C   0  0  0  0  0  0  0  0  0  0  0  0
  145.2590  153.3990  133.7750 O   0  0  0  0  0  0  0  0  0  0  0  0
  146.8480  154.8480  132.8630 N   0  0  0  0  0  0  0  0  0  0  0  0
  148.0770  154.3120  132.6220 C   0  0  0  0  0  0  0  0  0  0  0  0
  148.3780  152.8750  132.4590 C   0  0  0  0  0  0  0  0  0  0  0  0
  147.5060  151.8740  132.9830 N   0  0  0  0  0  0  0  0  0  0  0  0
  149.4490  152.5280  131.8940 O   0  0  0  0  0  0  0  0  0  0  0  0
  149.0530  155.3060  132.6070 C   0  0  0  0  0  0  0  0  0  0  0  0
  148.3800  156.4780  132.8660 C   0  0  0  0  0  0  0  0  0  0  0  0
  148.8540  157.7820  132.9590 C   0  0  0  0  0  0  0  0  0  0  0  0
  147.9260  158.8070  133.2060 C   0  0  0  0  0  0  0  0  0  0  0  0
  146.5420  158.5160  133.3490 C   0  0  0  0  0  0  0  0  0  0  0  0
  145.5510  159.5870  133.5990 C   0  0  0  0  0  0  0  0  0  0  0  0
  144.1690  159.4590  133.6270 C   0  0  0  0  0  0  0  0  0  0  0  0
  143.6770  160.7180  133.8950 C   0  0  0  0  0  0  0  0  0  0  0  0
  144.7820  161.5360  134.0140 C   0  0  0  0  0  0  0  0  0  0  0  0
  144.7610  162.9730  134.2990 C   0  0  0  0  0  0  0  0  0  0  0  0
  144.1430  163.7580  133.5330 O   0  0  0  0  0  0  0  0  0  0  0  0
  145.4190  163.4770  135.4130 O   0  0  0  0  0  0  0  0  0  0  0  0
  145.8790  160.8380  133.8340 O   0  0  0  0  0  0  0  0  0  0  0  0
  146.1010  157.1760  133.2460 C   0  0  0  0  0  0  0  0  0  0  0  0
  147.0520  156.1750  133.0170 C   0  0  0  0  0  0  0  0  0  0  0  0
  143.6112  154.6865  132.1737 H   0  0  0  0  0  0  0  0  0  0  0  0
  144.9424  155.2732  131.1200 H   0  0  0  0  0  0  0  0  0  0  0  0
  144.4976  153.5329  131.1200 H   0  0  0  0  0  0  0  0  0  0  0  0
  147.7110  150.8630  132.8200 H   0  0  0  0  0  0  0  0  0  0  0  0
  146.7030  152.1270  133.5990 H   0  0  0  0  0  0  0  0  0  0  0  0
  150.1309  155.1808  132.4267 H   0  0  0  0  0  0  0  0  0  0  0  0
  149.9250  158.0044  132.8425 H   0  0  0  0  0  0  0  0  0  0  0  0
  148.2743  159.8470  133.2897 H   0  0  0  0  0  0  0  0  0  0  0  0
  143.5857  158.5401  133.4678 H   0  0  0  0  0  0  0  0  0  0  0  0
  142.6212  161.0106  133.9937 H   0  0  0  0  0  0  0  0  0  0  0  0
  145.0342  156.9262  133.3437 H   0  0  0  0  0  0  0  0  0  0  0  0
  1  2  1  0
  2  3  2  0
  2  4  1  0
  4  5  1  0
  5  6  1  0
  6  7  1  0
  6  8  2  0
  5  9  2  0
  9 10  1  0
 10 11  2  0
 11 12  1  0
 12 13  2  0
 13 14  1  0
 14 15  2  0
 15 16  1  0
 16 17  2  0
 17 18  1  0
 18 19  2  0
 18 20  1  0
 17 21  1  0
 13 22  1  0
 22 23  2  0
 23  4  1  0
 23 10  1  0
 21 14  1  0
  1 24  1  0
  1 25  1  0
  1 26  1  0
  7 27  1  0
  7 28  1  0
  9 29  1  0
 11 30  1  0
 12 31  1  0
 15 32  1  0
 16 33  1  0
 22 34  1  0
M  CHG  1  20  -1
M  END
>  <UniqueID>  (92) 
92

>  <SMILES>  (92) 
CC(=O)n1c(C(N)=O)cc2ccc(-c3ccc(C(=O)[O-])o3)cc21

>  <Energy>  (92) 
101.92300437472068

>  <Genealogy>  (92) 
CC(=O)n1c(C(N)=O)cc2ccc(-c3ccc(C(=O)[O-])o3)cc21 (protonated)
CC(=O)n1c(C(N)=O)cc2ccc(-c3ccc(C(=O)[O-])o3)cc21 (3D coordinates assigned)
CC(=O)n1c(C(N)=O)cc2ccc(-c3ccc(C(=O)[O-])o3)cc21 (optimized conformer: 101.92300437472068 kcal/mol)

>  <smiles>  (92) 
CC(=O)n1c(C(N)=O)cc2ccc(-c3ccc(C(=O)O)o3)cc21

>  <score_type>  (92) 
oracle

>  <origin>  (92) 
adg

>  <m_score__min__energy>  (92) 
-7.3700000000000001

>  <m_primary>  (92) 
energy

$$$$
92:0
     RDKit          3D

 45 47  0  0  0  0  0  0  0  0999 V2000
  145.8000  154.4890  132.6750 C   0  0  0  0  0  0  0  0  0  0  0  0
  147.1450  153.8140  132.6430 C   0  0  0  0  0  0  0  0  0  0  0  0
  147.2250  152.4110  132.6470 C   0  0  0  0  0  0  0  0  0  0  0  0
  148.4670  151.7750  132.6210 C   0  0  0  0  0  0  0  0  0  0  0  0
  149.6400  152.5320  132.5980 C   0  0  0  0  0  0  0  0  0  0  0  0
  149.5740  153.9270  132.5900 C   0  0  0  0  0  0  0  0  0  0  0  0
  148.3280  154.5810  132.5900 C   0  0  0  0  0  0  0  0  0  0  0  0
  148.2370  156.0150  132.6050 N   0  0  0  0  0  0  0  0  0  0  0  0
  147.7280  156.8300  133.6680 C   0  0  0  0  0  0  0  0  0  0  0  0
  148.0230  156.5720  134.8660 O   0  0  0  0  0  0  0  0  0  0  0  0
  146.9390  157.9910  133.3600 N   0  0  0  0  0  0  0  0  0  0  0  0
  147.3750  159.1760  132.8470 C   0  0  0  0  0  0  0  0  0  0  0  0
  148.7420  159.4440  132.3490 C   0  0  0  0  0  0  0  0  0  0  0  0
  149.8040  158.5220  132.5970 N   0  0  0  0  0  0  0  0  0  0  0  0
  148.9900  160.5100  131.7230 O   0  0  0  0  0  0  0  0  0  0  0  0
  146.3240  160.0880  132.7630 C   0  0  0  0  0  0  0  0  0  0  0  0
  145.2220  159.4190  133.2440 C   0  0  0  0  0  0  0  0  0  0  0  0
  143.9100  159.8550  133.4010 C   0  0  0  0  0  0  0  0  0  0  0  0
  142.9800  158.9600  133.9530 C   0  0  0  0  0  0  0  0  0  0  0  0
  143.3770  157.6550  134.3410 C   0  0  0  0  0  0  0  0  0  0  0  0
  142.3800  156.7130  134.9670 C   0  0  0  0  0  0  0  0  0  0  0  0
  140.9450  157.2520  134.8880 C   0  0  0  0  0  0  0  0  0  0  0  0
  140.4980  158.2250  136.3220 S   0  0  0  0  0  0  0  0  0  0  0  0
  141.4320  157.9260  137.4610 O   0  0  0  0  0  0  0  0  0  0  0  0
  139.0880  157.9130  136.7350 O   0  0  0  0  0  0  0  0  0  0  0  0
  140.6070  159.8540  135.9320 O   0  0  0  0  0  0  0  0  0  0  0  0
  144.7170  157.2480  134.1660 C   0  0  0  0  0  0  0  0  0  0  0  0
  145.6190  158.1550  133.5970 C   0  0  0  0  0  0  0  0  0  0  0  0
  145.4921  154.6435  133.7197 H   0  0  0  0  0  0  0  0  0  0  0  0
  145.8654  155.4611  132.1644 H   0  0  0  0  0  0  0  0  0  0  0  0
  145.0597  153.8556  132.1644 H   0  0  0  0  0  0  0  0  0  0  0  0
  146.3035  151.8107  132.6708 H   0  0  0  0  0  0  0  0  0  0  0  0
  148.5218  150.6764  132.6186 H   0  0  0  0  0  0  0  0  0  0  0  0
  150.6180  152.0286  132.5862 H   0  0  0  0  0  0  0  0  0  0  0  0
  150.5017  154.5181  132.5836 H   0  0  0  0  0  0  0  0  0  0  0  0
  150.7730  158.7390  132.2730 H   0  0  0  0  0  0  0  0  0  0  0  0
  149.6280  157.6050  133.0640 H   0  0  0  0  0  0  0  0  0  0  0  0
  146.3666  161.1224  132.3913 H   0  0  0  0  0  0  0  0  0  0  0  0
  143.6106  160.8702  133.1016 H   0  0  0  0  0  0  0  0  0  0  0  0
  141.9341  159.2737  134.0858 H   0  0  0  0  0  0  0  0  0  0  0  0
  142.4255  155.7481  134.4409 H   0  0  0  0  0  0  0  0  0  0  0  0
  142.6412  156.6020  136.0297 H   0  0  0  0  0  0  0  0  0  0  0  0
  140.8541  157.8828  133.9915 H   0  0  0  0  0  0  0  0  0  0  0  0
  140.2655  156.3880  134.8455 H   0  0  0  0  0  0  0  0  0  0  0  0
  145.0447  156.2427  134.4693 H   0  0  0  0  0  0  0  0  0  0  0  0
  1  2  1  0
  2  3  2  0
  3  4  1  0
  4  5  2  0
  5  6  1  0
  6  7  2  0
  7  8  1  0
  8  9  1  0
  9 10  2  0
  9 11  1  0
 11 12  1  0
 12 13  1  0
 13 14  1  0
 13 15  2  0
 12 16  2  0
 16 17  1  0
 17 18  2  0
 18 19  1  0
 19 20  2  0
 20 21  1  0
 21 22  1  0
 22 23  1  0
 23 24  2  0
 23 25  2  0
 23 26  1  0
 20 27  1  0
 27 28  2  0
  7  2  1  0
 28 11  1  0
 28 17  1  0
  1 29  1  0
  1 30  1  0
  1 31  1  0
  3 32  1  0
  4 33  1  0
  5 34  1  0
  6 35  1  0
 14 36  1  0
 14 37  1  0
 16 38  1  0
 18 39  1  0
 19 40  1  0
 21 41  1  0
 21 42  1  0
 22 43  1  0
 22 44  1  0
 27 45  1  0
M  CHG  2   8  -1  26  -1
M  END
>  <UniqueID>  (93) 
93

>  <SMILES>  (93) 
Cc1ccccc1[N-]C(=O)n1c(C(N)=O)cc2ccc(CCS(=O)(=O)[O-])cc21

>  <Energy>  (93) 
83.45306717764103

>  <Genealogy>  (93) 
Cc1ccccc1[N-]C(=O)n1c(C(N)=O)cc2ccc(CCS(=O)(=O)[O-])cc21 (protonated)
Cc1ccccc1[N-]C(=O)n1c(C(N)=O)cc2ccc(CCS(=O)(=O)[O-])cc21 (3D coordinates assigned)
Cc1ccccc1[N-]C(=O)n1c(C(N)=O)cc2ccc(CCS(=O)(=O)[O-])cc21 (optimized conformer: 83.45306717764103 kcal/mol)

>  <smiles>  (93) 
Cc1ccccc1NC(=O)n1c(C(N)=O)cc2ccc(CCS(=O)(=O)O)cc21

>  <score_type>  (93) 
oracle

>  <origin>  (93) 
adg

>  <m_score__min__energy>  (93) 
-9.2699999999999996

>  <m_primary>  (93) 
energy

$$$$
93:0
     RDKit          3D

 39 41  0  0  0  0  0  0  0  0999 V2000
  150.1100  159.7270  130.5370 C   0  0  0  0  0  0  0  0  0  0  0  0
  148.7880  160.1880  131.0570 C   0  0  0  0  0  0  0  0  0  0  0  0
  148.1220  161.0440  130.4170 O   0  0  0  0  0  0  0  0  0  0  0  0
  148.2610  159.6360  132.2600 N   0  0  0  0  0  0  0  0  0  0  0  0
  148.6680  158.6430  133.2730 C   0  0  0  0  0  0  0  0  0  0  0  0
  147.4220  158.7490  134.1020 C   0  0  0  0  0  0  0  0  0  0  0  0
  146.5330  157.4830  134.2000 C   0  0  0  0  0  0  0  0  0  0  0  0
  147.2040  156.1640  133.8750 C   0  0  0  0  0  0  0  0  0  0  0  0
  147.5190  155.8360  132.5310 C   0  0  0  0  0  0  0  0  0  0  0  0
  148.1310  154.6130  132.2160 C   0  0  0  0  0  0  0  0  0  0  0  0
  148.4390  153.7480  133.2610 C   0  0  0  0  0  0  0  0  0  0  0  0
  149.0130  152.4990  133.2350 C   0  0  0  0  0  0  0  0  0  0  0  0
  149.0850  152.0960  134.5660 C   0  0  0  0  0  0  0  0  0  0  0  0
  149.7250  150.8390  135.0140 C   0  0  0  0  0  0  0  0  0  0  0  0
  149.2140  150.1200  136.1370 N   0  0  0  0  0  0  0  0  0  0  0  0
  150.7110  150.3720  134.3850 O   0  0  0  0  0  0  0  0  0  0  0  0
  148.5740  153.0590  135.3860 N   0  0  0  0  0  0  0  0  0  0  0  0
  148.4030  152.9930  136.8110 C   0  0  0  0  0  0  0  0  0  0  0  0
  149.1950  153.6030  137.5780 O   0  0  0  0  0  0  0  0  0  0  0  0
  147.3520  152.2680  137.3600 O   0  0  0  0  0  0  0  0  0  0  0  0
  148.1820  154.0650  134.5700 C   0  0  0  0  0  0  0  0  0  0  0  0
  147.5580  155.2700  134.9120 C   0  0  0  0  0  0  0  0  0  0  0  0
  147.0390  159.7710  133.0730 C   0  0  0  0  0  0  0  0  0  0  0  0
  150.7755  159.4949  131.3815 H   0  0  0  0  0  0  0  0  0  0  0  0
  149.9684  158.8252  129.9232 H   0  0  0  0  0  0  0  0  0  0  0  0
  150.5598  160.5213  129.9232 H   0  0  0  0  0  0  0  0  0  0  0  0
  148.8130  157.6382  132.8495 H   0  0  0  0  0  0  0  0  0  0  0  0
  149.6276  158.8104  133.7840 H   0  0  0  0  0  0  0  0  0  0  0  0
  147.4205  158.9389  135.1855 H   0  0  0  0  0  0  0  0  0  0  0  0
  146.1519  157.4202  135.2299 H   0  0  0  0  0  0  0  0  0  0  0  0
  145.7540  157.6120  133.4342 H   0  0  0  0  0  0  0  0  0  0  0  0
  147.2809  156.5481  131.7271 H   0  0  0  0  0  0  0  0  0  0  0  0
  148.3603  154.3463  131.1738 H   0  0  0  0  0  0  0  0  0  0  0  0
  149.3452  151.9368  132.3498 H   0  0  0  0  0  0  0  0  0  0  0  0
  148.4320  150.5010  136.7160 H   0  0  0  0  0  0  0  0  0  0  0  0
  149.6480  149.2140  136.4210 H   0  0  0  0  0  0  0  0  0  0  0  0
  147.3477  155.5161  135.9633 H   0  0  0  0  0  0  0  0  0  0  0  0
  146.1283  159.4969  132.5202 H   0  0  0  0  0  0  0  0  0  0  0  0
  146.7862  160.7782  133.4358 H   0  0  0  0  0  0  0  0  0  0  0  0
  1  2  1  0
  2  3  2  0
  2  4  1  0
  4  5  1  0
  5  6  1  0
  6  7  1  0
  7  8  1  0
  8  9  2  0
  9 10  1  0
 10 11  2  0
 11 12  1  0
 12 13  2  0
 13 14  1  0
 14 15  1  0
 14 16  2  0
 13 17  1  0
 17 18  1  0
 18 19  2  0
 18 20  1  0
 17 21  1  0
 21 22  2  0
  6 23  1  0
 23  4  1  0
 22  8  1  0
 21 11  1  0
  1 24  1  0
  1 25  1  0
  1 26  1  0
  5 27  1  0
  5 28  1  0
  6 29  1  0
  7 30  1  0
  7 31  1  0
  9 32  1  0
 10 33  1  0
 12 34  1  0
 15 35  1  0
 15 36  1  0
 22 37  1  0
 23 38  1  0
 23 39  1  0
M  CHG  1  20  -1
M  END
>  <UniqueID>  (94) 
94

>  <SMILES>  (94) 
CC(=O)N1CC(Cc2ccc3cc(C(N)=O)n(C(=O)[O-])c3c2)C1

>  <Energy>  (94) 
123.74915410489598

>  <Genealogy>  (94) 
CC(=O)N1CC(Cc2ccc3cc(C(N)=O)n(C(=O)[O-])c3c2)C1 (protonated)
CC(=O)N1CC(Cc2ccc3cc(C(N)=O)n(C(=O)[O-])c3c2)C1 (3D coordinates assigned)
CC(=O)N1CC(Cc2ccc3cc(C(N)=O)n(C(=O)[O-])c3c2)C1 (nonaromatic ring conformer: 123.74915410489598 kcal/mol)

>  <smiles>  (94) 
CC(=O)N1CC(Cc2ccc3cc(C(N)=O)n(C(=O)O)c3c2)C1

>  <score_type>  (94) 
oracle

>  <origin>  (94) 
adg

>  <m_score__min__energy>  (94) 
-7.6600000000000001

>  <m_primary>  (94) 
energy

$$$$
94:0
     RDKit          3D

 38 39  0  0  0  0  0  0  0  0999 V2000
  149.6780  151.6430  131.4250 C   0  0  0  0  0  0  0  0  0  0  0  0
  148.9510  151.3100  132.7430 C   0  0  0  0  0  0  0  0  0  0  0  0
  148.1980  149.9820  132.5730 C   0  0  0  0  0  0  0  0  0  0  0  0
  149.9590  151.1670  133.8990 C   0  0  0  0  0  0  0  0  0  0  0  0
  147.9730  152.3150  133.0490 O   0  0  0  0  0  0  0  0  0  0  0  0
  148.0640  153.6840  132.7540 C   0  0  0  0  0  0  0  0  0  0  0  0
  149.1610  154.2000  132.4090 O   0  0  0  0  0  0  0  0  0  0  0  0
  146.8920  154.5080  132.8600 N   0  0  0  0  0  0  0  0  0  0  0  0
  145.5940  154.0960  132.9120 C   0  0  0  0  0  0  0  0  0  0  0  0
  145.1260  152.7080  132.7030 C   0  0  0  0  0  0  0  0  0  0  0  0
  145.8470  151.8160  131.8510 N   0  0  0  0  0  0  0  0  0  0  0  0
  144.1010  152.2890  133.3020 O   0  0  0  0  0  0  0  0  0  0  0  0
  144.7440  155.1830  133.1000 C   0  0  0  0  0  0  0  0  0  0  0  0
  145.5680  156.2840  133.1600 C   0  0  0  0  0  0  0  0  0  0  0  0
  145.2530  157.6250  133.3580 C   0  0  0  0  0  0  0  0  0  0  0  0
  146.3110  158.5480  133.4140 C   0  0  0  0  0  0  0  0  0  0  0  0
  147.6550  158.1210  133.2600 C   0  0  0  0  0  0  0  0  0  0  0  0
  148.7840  159.1130  133.3860 C   0  0  0  0  0  0  0  0  0  0  0  0
  149.8560  158.7370  132.5960 F   0  0  0  0  0  0  0  0  0  0  0  0
  149.2210  159.1910  134.6980 F   0  0  0  0  0  0  0  0  0  0  0  0
  148.3420  160.3590  132.9850 F   0  0  0  0  0  0  0  0  0  0  0  0
  147.9330  156.7450  133.0840 C   0  0  0  0  0  0  0  0  0  0  0  0
  146.8590  155.8510  133.0130 C   0  0  0  0  0  0  0  0  0  0  0  0
  150.6570  152.0915  131.6495 H   0  0  0  0  0  0  0  0  0  0  0  0
  149.8219  150.7210  130.8425 H   0  0  0  0  0  0  0  0  0  0  0  0
  149.0738  152.3541  130.8425 H   0  0  0  0  0  0  0  0  0  0  0  0
  147.9616  149.5652  133.5631 H   0  0  0  0  0  0  0  0  0  0  0  0
  147.2653  150.1579  132.0171 H   0  0  0  0  0  0  0  0  0  0  0  0
  148.8278  149.2719  132.0171 H   0  0  0  0  0  0  0  0  0  0  0  0
  149.4284  151.2423  134.8596 H   0  0  0  0  0  0  0  0  0  0  0  0
  150.4581  150.1891  133.8315 H   0  0  0  0  0  0  0  0  0  0  0  0
  150.7104  151.9676  133.8315 H   0  0  0  0  0  0  0  0  0  0  0  0
  145.5300  150.8270  131.7390 H   0  0  0  0  0  0  0  0  0  0  0  0
  146.6700  152.1410  131.2970 H   0  0  0  0  0  0  0  0  0  0  0  0
  143.6473  155.1655  133.1829 H   0  0  0  0  0  0  0  0  0  0  0  0
  144.2085  157.9522  133.4672 H   0  0  0  0  0  0  0  0  0  0  0  0
  146.0946  159.6138  133.5791 H   0  0  0  0  0  0  0  0  0  0  0  0
  148.9698  156.3862  133.0048 H   0  0  0  0  0  0  0  0  0  0  0  0
  1  2  1  0
  2  3  1  0
  2  4  1  0
  2  5  1  0
  5  6  1  0
  6  7  2  0
  6  8  1  0
  8  9  1  0
  9 10  1  0
 10 11  1  0
 10 12  2  0
  9 13  2  0
 13 14  1  0
 14 15  2  0
 15 16  1  0
 16 17  2  0
 17 18  1  0
 18 19  1  0
 18 20  1  0
 18 21  1  0
 17 22  1  0
 22 23  2  0
 23  8  1  0
 23 14  1  0
  1 24  1  0
  1 25  1  0
  1 26  1  0
  3 27  1  0
  3 28  1  0
  3 29  1  0
  4 30  1  0
  4 31  1  0
  4 32  1  0
 11 33  1  0
 11 34  1  0
 13 35  1  0
 15 36  1  0
 16 37  1  0
 22 38  1  0
M  END
>  <UniqueID>  (95) 
95

>  <SMILES>  (95) 
CC(C)(C)OC(=O)n1c(C(N)=O)cc2ccc(C(F)(F)F)cc21

>  <Energy>  (95) 
72.19335619169588

>  <Genealogy>  (95) 
CC(C)(C)OC(=O)n1c(C(N)=O)cc2ccc(C(F)(F)F)cc21 (3D coordinates assigned)
CC(C)(C)OC(=O)n1c(C(N)=O)cc2ccc(C(F)(F)F)cc21 (optimized conformer: 72.19335619169588 kcal/mol)

>  <smiles>  (95) 
CC(C)(C)OC(=O)n1c(C(N)=O)cc2ccc(C(F)(F)F)cc21

>  <score_type>  (95) 
oracle

>  <origin>  (95) 
adg

>  <m_score__min__energy>  (95) 
-6.6100000000000003

>  <m_primary>  (95) 
energy

$$$$
95:0
     RDKit          3D

 30 32  0  0  0  0  0  0  0  0999 V2000
  143.3880  155.5020  133.1360 N   0  0  0  0  0  0  0  0  0  0  0  0
  143.3830  154.2640  133.8480 C   0  0  0  0  0  0  0  0  0  0  0  0
  143.9020  154.2110  134.9950 O   0  0  0  0  0  0  0  0  0  0  0  0
  142.7240  153.0640  133.2940 C   0  0  0  0  0  0  0  0  0  0  0  0
  143.3900  151.8650  133.0650 C   0  0  0  0  0  0  0  0  0  0  0  0
  142.4230  150.9940  132.6180 C   0  0  0  0  0  0  0  0  0  0  0  0
  142.5320  149.6630  132.2280 C   0  0  0  0  0  0  0  0  0  0  0  0
  141.3740  149.0120  131.7730 C   0  0  0  0  0  0  0  0  0  0  0  0
  140.1320  149.7000  131.7060 C   0  0  0  0  0  0  0  0  0  0  0  0
  138.8670  149.0270  131.2040 C   0  0  0  0  0  0  0  0  0  0  0  0
  138.5270  149.2980  129.7540 C   0  0  0  0  0  0  0  0  0  0  0  0
  138.7270  147.9530  129.3870 O   0  0  0  0  0  0  0  0  0  0  0  0
  139.0470  147.6070  130.7140 C   0  0  0  0  0  0  0  0  0  0  0  0
  140.0660  151.0530  132.1110 C   0  0  0  0  0  0  0  0  0  0  0  0
  141.2310  151.6710  132.5800 C   0  0  0  0  0  0  0  0  0  0  0  0
  141.4010  152.9490  132.9910 N   0  0  0  0  0  0  0  0  0  0  0  0
  140.4160  153.9970  132.9800 C   0  0  0  0  0  0  0  0  0  0  0  0
  139.1890  153.7210  132.9310 O   0  0  0  0  0  0  0  0  0  0  0  0
  140.8100  155.3290  133.0170 O   0  0  0  0  0  0  0  0  0  0  0  0
  143.8890  156.3300  133.5260 H   0  0  0  0  0  0  0  0  0  0  0  0
  142.8270  155.6230  132.2630 H   0  0  0  0  0  0  0  0  0  0  0  0
  144.4604  151.6573  133.2101 H   0  0  0  0  0  0  0  0  0  0  0  0
  143.4966  149.1363  132.2747 H   0  0  0  0  0  0  0  0  0  0  0  0
  141.4286  147.9574  131.4649 H   0  0  0  0  0  0  0  0  0  0  0  0
  138.2208  149.3079  132.0487 H   0  0  0  0  0  0  0  0  0  0  0  0
  137.4940  149.6447  129.6033 H   0  0  0  0  0  0  0  0  0  0  0  0
  139.0767  150.0843  129.2160 H   0  0  0  0  0  0  0  0  0  0  0  0
  138.3395  146.8951  131.1641 H   0  0  0  0  0  0  0  0  0  0  0  0
  139.9975  147.0910  130.9151 H   0  0  0  0  0  0  0  0  0  0  0  0
  139.1182  151.6088  132.0586 H   0  0  0  0  0  0  0  0  0  0  0  0
  1  2  1  0
  2  3  2  0
  2  4  1  0
  4  5  2  0
  5  6  1  0
  6  7  2  0
  7  8  1  0
  8  9  2  0
  9 10  1  0
 10 11  1  0
 11 12  1  0
 12 13  1  0
  9 14  1  0
 14 15  2  0
 15 16  1  0
 16 17  1  0
 17 18  2  0
 17 19  1  0
 16  4  1  0
 15  6  1  0
 13 10  1  0
  1 20  1  0
  1 21  1  0
  5 22  1  0
  7 23  1  0
  8 24  1  0
 10 25  1  0
 11 26  1  0
 11 27  1  0
 13 28  1  0
 13 29  1  0
 14 30  1  0
M  CHG  1  19  -1
M  END
>  <UniqueID>  (96) 
96

>  <SMILES>  (96) 
NC(=O)c1cc2ccc(C3COC3)cc2n1C(=O)[O-]

>  <Energy>  (96) 
137.10319383169687

>  <Genealogy>  (96) 
NC(=O)c1cc2ccc(C3COC3)cc2n1C(=O)[O-] (protonated)
NC(=O)c1cc2ccc(C3COC3)cc2n1C(=O)[O-] (3D coordinates assigned)
NC(=O)c1cc2ccc(C3COC3)cc2n1C(=O)[O-] (nonaromatic ring conformer: 137.10319383169687 kcal/mol)

>  <smiles>  (96) 
NC(=O)c1cc2ccc(C3COC3)cc2n1C(=O)O

>  <score_type>  (96) 
oracle

>  <origin>  (96) 
adg

>  <m_score__min__energy>  (96) 
-6.6699999999999999

>  <m_primary>  (96) 
energy

$$$$
96:0
     RDKit          3D

 57 59  0  0  0  0  0  0  0  0999 V2000
  140.1600  154.8330  133.2320 C   0  0  0  0  0  0  0  0  0  0  0  0
  139.1270  155.6840  132.6370 N   0  0  0  0  0  0  0  0  0  0  0  0
  138.9530  156.9460  133.3850 C   0  0  0  0  0  0  0  0  0  0  0  0
  140.2910  157.6820  133.6360 C   0  0  0  0  0  0  0  0  0  0  0  0
  140.3200  159.0760  132.9530 C   0  0  0  0  0  0  0  0  0  0  0  0
  141.2260  160.0920  133.6760 C   0  0  0  0  0  0  0  0  0  0  0  0
  142.3150  159.4060  134.3820 N   0  0  0  0  0  0  0  0  0  0  0  0
  143.6970  159.6740  134.0660 C   0  0  0  0  0  0  0  0  0  0  0  0
  144.1960  161.0020  134.1010 C   0  0  0  0  0  0  0  0  0  0  0  0
  145.5320  161.2760  133.7650 C   0  0  0  0  0  0  0  0  0  0  0  0
  146.3400  160.2110  133.3810 C   0  0  0  0  0  0  0  0  0  0  0  0
  147.6630  160.1980  133.0080 C   0  0  0  0  0  0  0  0  0  0  0  0
  147.9510  158.8670  132.7160 C   0  0  0  0  0  0  0  0  0  0  0  0
  149.2490  158.4240  132.1690 C   0  0  0  0  0  0  0  0  0  0  0  0
  149.6400  157.0550  132.2300 N   0  0  0  0  0  0  0  0  0  0  0  0
  149.9960  159.2540  131.5850 O   0  0  0  0  0  0  0  0  0  0  0  0
  146.8540  158.0820  132.9160 N   0  0  0  0  0  0  0  0  0  0  0  0
  146.7760  156.6490  132.8210 C   0  0  0  0  0  0  0  0  0  0  0  0
  147.1820  156.0660  131.7800 O   0  0  0  0  0  0  0  0  0  0  0  0
  146.2250  155.9160  133.8840 O   0  0  0  0  0  0  0  0  0  0  0  0
  144.9970  155.1730  133.8650 C   0  0  0  0  0  0  0  0  0  0  0  0
  144.1720  155.5090  132.6080 C   0  0  0  0  0  0  0  0  0  0  0  0
  144.1820  155.4520  135.1430 C   0  0  0  0  0  0  0  0  0  0  0  0
  145.3710  153.6840  133.8280 C   0  0  0  0  0  0  0  0  0  0  0  0
  145.8720  158.9230  133.3190 C   0  0  0  0  0  0  0  0  0  0  0  0
  144.5520  158.6180  133.6730 C   0  0  0  0  0  0  0  0  0  0  0  0
  141.9790  158.3790  135.3810 C   0  0  0  0  0  0  0  0  0  0  0  0
  140.5700  157.8080  135.1480 C   0  0  0  0  0  0  0  0  0  0  0  0
  140.0934  154.8878  134.3286 H   0  0  0  0  0  0  0  0  0  0  0  0
  140.0101  153.7928  132.9071 H   0  0  0  0  0  0  0  0  0  0  0  0
  141.1523  155.1792  132.9071 H   0  0  0  0  0  0  0  0  0  0  0  0
  138.2360  155.1350  132.5930 H   0  0  0  0  0  0  0  0  0  0  0  0
  138.2902  157.6080  132.8085 H   0  0  0  0  0  0  0  0  0  0  0  0
  138.5239  156.6938  134.3660 H   0  0  0  0  0  0  0  0  0  0  0  0
  141.0896  157.0769  133.1821 H   0  0  0  0  0  0  0  0  0  0  0  0
  140.6867  158.9524  131.9233 H   0  0  0  0  0  0  0  0  0  0  0  0
  139.2952  159.4746  132.9838 H   0  0  0  0  0  0  0  0  0  0  0  0
  141.6548  160.7839  132.9361 H   0  0  0  0  0  0  0  0  0  0  0  0
  140.6216  160.6448  134.4102 H   0  0  0  0  0  0  0  0  0  0  0  0
  143.5291  161.8260  134.3945 H   0  0  0  0  0  0  0  0  0  0  0  0
  145.9273  162.3018  133.8044 H   0  0  0  0  0  0  0  0  0  0  0  0
  148.3485  161.0564  132.9520 H   0  0  0  0  0  0  0  0  0  0  0  0
  149.2900  156.3640  131.5290 H   0  0  0  0  0  0  0  0  0  0  0  0
  143.1920  155.9081  132.9085 H   0  0  0  0  0  0  0  0  0  0  0  0
  144.7063  156.2612  132.0090 H   0  0  0  0  0  0  0  0  0  0  0  0
  144.0287  154.5976  132.0090 H   0  0  0  0  0  0  0  0  0  0  0  0
  144.8017  155.2398  136.0267 H   0  0  0  0  0  0  0  0  0  0  0  0
  143.8722  156.5074  135.1572 H   0  0  0  0  0  0  0  0  0  0  0  0
  143.2904  154.8079  135.1572 H   0  0  0  0  0  0  0  0  0  0  0  0
  145.4664  153.3043  134.8560 H   0  0  0  0  0  0  0  0  0  0  0  0
  144.5862  153.1218  133.3008 H   0  0  0  0  0  0  0  0  0  0  0  0
  146.3283  153.5594  133.3008 H   0  0  0  0  0  0  0  0  0  0  0  0
  144.1881  157.5803  133.6461 H   0  0  0  0  0  0  0  0  0  0  0  0
  142.7119  157.5615  135.3140 H   0  0  0  0  0  0  0  0  0  0  0  0
  142.0030  158.8447  136.3773 H   0  0  0  0  0  0  0  0  0  0  0  0
  140.4985  156.8146  135.6149 H   0  0  0  0  0  0  0  0  0  0  0  0
  139.8287  158.4866  135.5950 H   0  0  0  0  0  0  0  0  0  0  0  0
  1  2  1  0
  2  3  1  0
  3  4  1  0
  4  5  1  0
  5  6  1  0
  6  7  1  0
  7  8  1  0
  8  9  2  0
  9 10  1  0
 10 11  2  0
 11 12  1  0
 12 13  2  0
 13 14  1  0
 14 15  1  0
 14 16  2  0
 13 17  1  0
 17 18  1  0
 18 19  2  0
 18 20  1  0
 20 21  1  0
 21 22  1  0
 21 23  1  0
 21 24  1  0
 17 25  1  0
 25 26  2  0
  7 27  1  0
 27 28  1  0
 28  4  1  0
 26  8  1  0
 25 11  1  0
  1 29  1  0
  1 30  1  0
  1 31  1  0
  2 32  1  0
  3 33  1  0
  3 34  1  0
  4 35  1  0
  5 36  1  0
  5 37  1  0
  6 38  1  0
  6 39  1  0
  9 40  1  0
 10 41  1  0
 12 42  1  0
 15 43  1  0
 22 44  1  0
 22 45  1  0
 22 46  1  0
 23 47  1  0
 23 48  1  0
 23 49  1  0
 24 50  1  0
 24 51  1  0
 24 52  1  0
 26 53  1  0
 27 54  1  0
 27 55  1  0
 28 56  1  0
 28 57  1  0
M  CHG  1  15  -1
M  END
>  <UniqueID>  (97) 
97

>  <SMILES>  (97) 
CNCC1CCN(c2ccc3cc(C([NH-])=O)n(C(=O)OC(C)(C)C)c3c2)CC1

>  <Energy>  (97) 
98.77096045864874

>  <Genealogy>  (97) 
CNCC1CCN(c2ccc3cc(C([NH-])=O)n(C(=O)OC(C)(C)C)c3c2)CC1 (protonated)
CNCC1CCN(c2ccc3cc(C([NH-])=O)n(C(=O)OC(C)(C)C)c3c2)CC1 (3D coordinates assigned)
CNCC1CCN(c2ccc3cc(C([NH-])=O)n(C(=O)OC(C)(C)C)c3c2)CC1 (nonaromatic ring conformer: 98.77096045864874 kcal/mol)

>  <smiles>  (97) 
CNCC1CCN(c2ccc3cc(C(N)=O)n(C(=O)OC(C)(C)C)c3c2)CC1

>  <score_type>  (97) 
oracle

>  <origin>  (97) 
adg

>  <m_score__min__energy>  (97) 
-8.5899999999999999

>  <m_primary>  (97) 
energy

$$$$
97:0
     RDKit          3D

 46 48  0  0  0  0  0  0  0  0999 V2000
  141.1780  159.0590  136.3480 C   0  0  0  0  0  0  0  0  0  0  0  0
  141.6190  158.7900  134.9140 C   0  0  0  0  0  0  0  0  0  0  0  0
  143.0200  158.5290  134.8590 O   0  0  0  0  0  0  0  0  0  0  0  0
  143.7310  158.3820  133.6620 C   0  0  0  0  0  0  0  0  0  0  0  0
  143.1800  157.8660  132.6520 O   0  0  0  0  0  0  0  0  0  0  0  0
  145.0900  158.8380  133.5810 N   0  0  0  0  0  0  0  0  0  0  0  0
  145.5370  160.1260  133.5690 C   0  0  0  0  0  0  0  0  0  0  0  0
  144.7190  161.3310  133.8170 C   0  0  0  0  0  0  0  0  0  0  0  0
  143.2970  161.2830  133.7280 N   0  0  0  0  0  0  0  0  0  0  0  0
  145.2800  162.4070  134.1570 O   0  0  0  0  0  0  0  0  0  0  0  0
  146.9150  160.1620  133.3670 C   0  0  0  0  0  0  0  0  0  0  0  0
  147.3040  158.8460  133.2620 C   0  0  0  0  0  0  0  0  0  0  0  0
  148.5630  158.3000  133.0440 C   0  0  0  0  0  0  0  0  0  0  0  0
  148.6690  156.9030  132.9480 C   0  0  0  0  0  0  0  0  0  0  0  0
  147.5190  156.0760  133.0610 C   0  0  0  0  0  0  0  0  0  0  0  0
  147.6400  154.6400  132.9480 N   0  0  0  0  0  0  0  0  0  0  0  0
  148.8540  154.0310  132.3890 C   0  0  0  0  0  0  0  0  0  0  0  0
  149.0730  152.6410  133.0030 C   0  0  0  0  0  0  0  0  0  0  0  0
  147.9020  151.7330  132.8400 N   0  0  0  0  0  0  0  0  0  0  0  0
  148.1450  150.7510  131.7680 C   0  0  0  0  0  0  0  0  0  0  0  0
  146.6130  152.4320  132.5990 C   0  0  0  0  0  0  0  0  0  0  0  0
  146.5300  153.7660  133.3500 C   0  0  0  0  0  0  0  0  0  0  0  0
  146.2550  156.6740  133.2830 C   0  0  0  0  0  0  0  0  0  0  0  0
  146.1840  158.0670  133.3930 C   0  0  0  0  0  0  0  0  0  0  0  0
  141.9049  158.6156  137.0445 H   0  0  0  0  0  0  0  0  0  0  0  0
  141.1231  160.1445  136.5172 H   0  0  0  0  0  0  0  0  0  0  0  0
  140.1877  158.6110  136.5172 H   0  0  0  0  0  0  0  0  0  0  0  0
  141.0734  157.9172  134.5259 H   0  0  0  0  0  0  0  0  0  0  0  0
  141.4001  159.6786  134.3037 H   0  0  0  0  0  0  0  0  0  0  0  0
  142.7920  160.3700  133.6870 H   0  0  0  0  0  0  0  0  0  0  0  0
  147.5563  161.0535  133.3046 H   0  0  0  0  0  0  0  0  0  0  0  0
  149.4504  158.9431  132.9494 H   0  0  0  0  0  0  0  0  0  0  0  0
  149.6546  156.4432  132.7833 H   0  0  0  0  0  0  0  0  0  0  0  0
  148.7447  153.9348  131.2987 H   0  0  0  0  0  0  0  0  0  0  0  0
  149.7190  154.6695  132.6217 H   0  0  0  0  0  0  0  0  0  0  0  0
  149.9442  152.1779  132.5167 H   0  0  0  0  0  0  0  0  0  0  0  0
  149.2275  152.7826  134.0829 H   0  0  0  0  0  0  0  0  0  0  0  0
  147.8000  151.1870  133.7290 H   0  0  0  0  0  0  0  0  0  0  0  0
  148.3866  149.7745  132.2131 H   0  0  0  0  0  0  0  0  0  0  0  0
  147.2430  150.6571  131.1454 H   0  0  0  0  0  0  0  0  0  0  0  0
  148.9867  151.0886  131.1454 H   0  0  0  0  0  0  0  0  0  0  0  0
  146.5106  152.6251  131.5209 H   0  0  0  0  0  0  0  0  0  0  0  0
  145.8033  151.7852  132.9678 H   0  0  0  0  0  0  0  0  0  0  0  0
  145.5751  154.2581  133.1135 H   0  0  0  0  0  0  0  0  0  0  0  0
  146.5944  153.5756  134.4315 H   0  0  0  0  0  0  0  0  0  0  0  0
  145.3484  156.0568  133.3672 H   0  0  0  0  0  0  0  0  0  0  0  0
  1  2  1  0
  2  3  1  0
  3  4  1  0
  4  5  2  0
  4  6  1  0
  6  7  1  0
  7  8  1  0
  8  9  1  0
  8 10  2  0
  7 11  2  0
 11 12  1  0
 12 13  2  0
 13 14  1  0
 14 15  2  0
 15 16  1  0
 16 17  1  0
 17 18  1  0
 18 19  1  0
 19 20  1  0
 19 21  1  0
 21 22  1  0
 15 23  1  0
 23 24  2  0
 24  6  1  0
 24 12  1  0
 22 16  1  0
  1 25  1  0
  1 26  1  0
  1 27  1  0
  2 28  1  0
  2 29  1  0
  9 30  1  0
 11 31  1  0
 13 32  1  0
 14 33  1  0
 17 34  1  0
 17 35  1  0
 18 36  1  0
 18 37  1  0
 19 38  1  0
 20 39  1  0
 20 40  1  0
 20 41  1  0
 21 42  1  0
 21 43  1  0
 22 44  1  0
 22 45  1  0
 23 46  1  0
M  CHG  2   9  -1  19   1
M  END
>  <UniqueID>  (98) 
98

>  <SMILES>  (98) 
CCOC(=O)n1c(C([NH-])=O)cc2ccc(N3CC[NH+](C)CC3)cc21

>  <Energy>  (98) 
91.91048487406967

>  <Genealogy>  (98) 
CCOC(=O)n1c(C([NH-])=O)cc2ccc(N3CC[NH+](C)CC3)cc21 (protonated)
CCOC(=O)n1c(C([NH-])=O)cc2ccc(N3CC[NH+](C)CC3)cc21 (3D coordinates assigned)
CCOC(=O)n1c(C([NH-])=O)cc2ccc(N3CC[NH+](C)CC3)cc21 (nonaromatic ring conformer: 91.91048487406967 kcal/mol)

>  <smiles>  (98) 
CCOC(=O)n1c(C(N)=O)cc2ccc(N3CCN(C)CC3)cc21

>  <score_type>  (98) 
oracle

>  <origin>  (98) 
adg

>  <m_score__min__energy>  (98) 
-6.8300000000000001

>  <m_primary>  (98) 
energy

$$$$
