0:0
     RDKit          3D

 40 41  0  0  0  0  0  0  0  0999 V2000
  150.6540  149.9850  130.3340 C   0  0  0  0  0  0  0  0  0  0  0  0
  149.7810  150.0870  131.4220 O   0  0  0  0  0  0  0  0  0  0  0  0
  149.0030  151.1950  131.7270 C   0  0  0  0  0  0  0  0  0  0  0  0
  147.7510  151.1130  131.9130 O   0  0  0  0  0  0  0  0  0  0  0  0
  149.6020  152.5430  131.8530 C   0  0  0  0  0  0  0  0  0  0  0  0
  148.9070  153.2700  132.9860 N   0  0  0  0  0  0  0  0  0  0  0  0
  148.6010  152.4720  133.9890 O   0  0  0  0  0  0  0  0  0  0  0  0
  148.7560  154.6250  132.7450 C   0  0  0  0  0  0  0  0  0  0  0  0
  149.8730  155.1230  132.2590 O   0  0  0  0  0  0  0  0  0  0  0  0
  147.7450  155.5700  132.8890 N   0  0  0  0  0  0  0  0  0  0  0  0
  146.4850  155.2540  133.3120 C   0  0  0  0  0  0  0  0  0  0  0  0
  145.8230  154.0070  133.6000 C   0  0  0  0  0  0  0  0  0  0  0  0
  146.2330  152.7900  132.8930 N   0  0  0  0  0  0  0  0  0  0  0  0
  144.8960  153.7880  134.4080 O   0  0  0  0  0  0  0  0  0  0  0  0
  145.7670  156.4680  133.4000 C   0  0  0  0  0  0  0  0  0  0  0  0
  146.5700  157.4910  133.0390 C   0  0  0  0  0  0  0  0  0  0  0  0
  146.3220  158.8450  132.9730 C   0  0  0  0  0  0  0  0  0  0  0  0
  147.2970  159.7120  132.5860 C   0  0  0  0  0  0  0  0  0  0  0  0
  148.5320  159.1920  132.2650 C   0  0  0  0  0  0  0  0  0  0  0  0
  149.6080  160.0970  131.8430 C   0  0  0  0  0  0  0  0  0  0  0  0
  149.5790  160.4790  130.3910 C   0  0  0  0  0  0  0  0  0  0  0  0
  148.5330  159.8350  129.7790 F   0  0  0  0  0  0  0  0  0  0  0  0
  149.4370  161.8680  130.3700 F   0  0  0  0  0  0  0  0  0  0  0  0
  148.7650  157.8200  132.3360 C   0  0  0  0  0  0  0  0  0  0  0  0
  147.7970  156.9270  132.7220 C   0  0  0  0  0  0  0  0  0  0  0  0
  151.6841  149.8646  130.7005 H   0  0  0  0  0  0  0  0  0  0  0  0
  150.3780  149.1130  129.7229 H   0  0  0  0  0  0  0  0  0  0  0  0
  150.5865  150.8971  129.7229 H   0  0  0  0  0  0  0  0  0  0  0  0
  150.6762  152.4534  132.0724 H   0  0  0  0  0  0  0  0  0  0  0  0
  149.4787  153.1012  130.9132 H   0  0  0  0  0  0  0  0  0  0  0  0
  147.9320  151.7580  133.7360 H   0  0  0  0  0  0  0  0  0  0  0  0
  146.4110  152.8490  131.8470 H   0  0  0  0  0  0  0  0  0  0  0  0
  146.3440  151.8960  133.4190 H   0  0  0  0  0  0  0  0  0  0  0  0
  144.7171  156.5642  133.7138 H   0  0  0  0  0  0  0  0  0  0  0  0
  145.3253  159.2291  133.2360 H   0  0  0  0  0  0  0  0  0  0  0  0
  147.1052  160.7938  132.5312 H   0  0  0  0  0  0  0  0  0  0  0  0
  149.5341  161.0178  132.4402 H   0  0  0  0  0  0  0  0  0  0  0  0
  150.5500  159.5510  131.9999 H   0  0  0  0  0  0  0  0  0  0  0  0
  150.4888  160.1870  129.8460 H   0  0  0  0  0  0  0  0  0  0  0  0
  149.7625  157.4383  132.0727 H   0  0  0  0  0  0  0  0  0  0  0  0
  1  2  1  0
  2  3  1  0
  3  4  2  0
  3  5  1  0
  5  6  1  0
  6  7  1  0
  6  8  1  0
  8  9  2  0
  8 10  1  0
 10 11  1  0
 11 12  1  0
 12 13  1  0
 12 14  2  0
 11 15  2  0
 15 16  1  0
 16 17  2  0
 17 18  1  0
 18 19  2  0
 19 20  1  0
 20 21  1  0
 21 22  1  0
 21 23  1  0
 19 24  1  0
 24 25  2  0
 25 10  1  0
 25 16  1  0
  1 26  1  0
  1 27  1  0
  1 28  1  0
  5 29  1  0
  5 30  1  0
  7 31  1  0
 13 32  1  0
 13 33  1  0
 15 34  1  0
 17 35  1  0
 18 36  1  0
 20 37  1  0
 20 38  1  0
 21 39  1  0
 24 40  1  0
M  END
>  <smiles>  (1) 
COC(=O)CN(O)C(=O)n1c(C(N)=O)cc2ccc(CC(F)F)cc21

>  <score_type>  (1) 
oracle

>  <origin>  (1) 
adg

>  <m_score__min__energy>  (1) 
-7.0700000000000003

>  <m_primary>  (1) 
energy

$$$$
1:0
     RDKit          3D

 46 48  0  0  0  0  0  0  0  0999 V2000
  147.7510  160.4720  130.3840 C   0  0  0  0  0  0  0  0  0  0  0  0
  148.6360  159.8370  131.4180 C   0  0  0  0  0  0  0  0  0  0  0  0
  149.9710  160.5460  131.3230 C   0  0  0  0  0  0  0  0  0  0  0  0
  148.8660  158.3790  131.0740 C   0  0  0  0  0  0  0  0  0  0  0  0
  148.1860  160.0290  132.7380 O   0  0  0  0  0  0  0  0  0  0  0  0
  147.9410  158.9780  133.6180 C   0  0  0  0  0  0  0  0  0  0  0  0
  148.8550  158.7550  134.4500 O   0  0  0  0  0  0  0  0  0  0  0  0
  146.7300  158.2450  133.5340 N   0  0  0  0  0  0  0  0  0  0  0  0
  145.4780  158.7310  133.5520 C   0  0  0  0  0  0  0  0  0  0  0  0
  144.9920  160.0920  133.6570 C   0  0  0  0  0  0  0  0  0  0  0  0
  145.9380  161.1540  133.8470 N   0  0  0  0  0  0  0  0  0  0  0  0
  143.7970  160.4510  133.5970 O   0  0  0  0  0  0  0  0  0  0  0  0
  144.6330  157.6400  133.4450 C   0  0  0  0  0  0  0  0  0  0  0  0
  145.3670  156.4800  133.3620 C   0  0  0  0  0  0  0  0  0  0  0  0
  144.9830  155.1620  133.2430 C   0  0  0  0  0  0  0  0  0  0  0  0
  145.9490  154.1810  133.1790 C   0  0  0  0  0  0  0  0  0  0  0  0
  147.2810  154.5380  133.2330 C   0  0  0  0  0  0  0  0  0  0  0  0
  148.3070  153.5010  133.1650 C   0  0  0  0  0  0  0  0  0  0  0  0
  149.2310  153.3190  132.1580 C   0  0  0  0  0  0  0  0  0  0  0  0
  149.9720  152.2040  132.5680 C   0  0  0  0  0  0  0  0  0  0  0  0
  149.4480  151.7850  133.7960 C   0  0  0  0  0  0  0  0  0  0  0  0
  149.9610  150.6170  134.5810 C   0  0  0  0  0  0  0  0  0  0  0  0
  149.2480  150.5080  135.7740 O   0  0  0  0  0  0  0  0  0  0  0  0
  148.4540  152.5970  134.1060 O   0  0  0  0  0  0  0  0  0  0  0  0
  147.6360  155.8880  133.3530 C   0  0  0  0  0  0  0  0  0  0  0  0
  146.6860  156.8850  133.4190 C   0  0  0  0  0  0  0  0  0  0  0  0
  146.9548  161.0433  130.8837 H   0  0  0  0  0  0  0  0  0  0  0  0
  148.3486  161.1486  129.7555 H   0  0  0  0  0  0  0  0  0  0  0  0
  147.3014  159.6892  129.7555 H   0  0  0  0  0  0  0  0  0  0  0  0
  150.3516  160.7482  132.3350 H   0  0  0  0  0  0  0  0  0  0  0  0
  150.6867  159.9092  130.7825 H   0  0  0  0  0  0  0  0  0  0  0  0
  149.8442  161.4956  130.7825 H   0  0  0  0  0  0  0  0  0  0  0  0
  148.9583  157.7938  132.0008 H   0  0  0  0  0  0  0  0  0  0  0  0
  148.0161  158.0026  130.4858 H   0  0  0  0  0  0  0  0  0  0  0  0
  149.7905  158.2825  130.4858 H   0  0  0  0  0  0  0  0  0  0  0  0
  146.0980  161.5140  134.8320 H   0  0  0  0  0  0  0  0  0  0  0  0
  146.4420  161.5440  133.0210 H   0  0  0  0  0  0  0  0  0  0  0  0
  143.5344  157.6931  133.4287 H   0  0  0  0  0  0  0  0  0  0  0  0
  143.9166  154.8956  133.1995 H   0  0  0  0  0  0  0  0  0  0  0  0
  145.6610  153.1235  133.0858 H   0  0  0  0  0  0  0  0  0  0  0  0
  149.3573  153.9141  131.2415 H   0  0  0  0  0  0  0  0  0  0  0  0
  150.8105  151.7429  132.0254 H   0  0  0  0  0  0  0  0  0  0  0  0
  149.8341  149.6961  133.9929 H   0  0  0  0  0  0  0  0  0  0  0  0
  151.0277  150.7662  134.8044 H   0  0  0  0  0  0  0  0  0  0  0  0
  148.4830  151.1390  135.7920 H   0  0  0  0  0  0  0  0  0  0  0  0
  148.7011  156.1597  133.3957 H   0  0  0  0  0  0  0  0  0  0  0  0
  1  2  1  0
  2  3  1  0
  2  4  1  0
  2  5  1  0
  5  6  1  0
  6  7  2  0
  6  8  1  0
  8  9  1  0
  9 10  1  0
 10 11  1  0
 10 12  2  0
  9 13  2  0
 13 14  1  0
 14 15  2  0
 15 16  1  0
 16 17  2  0
 17 18  1  0
 18 19  2  0
 19 20  1  0
 20 21  2  0
 21 22  1  0
 22 23  1  0
 21 24  1  0
 17 25  1  0
 25 26  2  0
 26  8  1  0
 26 14  1  0
 24 18  1  0
  1 27  1  0
  1 28  1  0
  1 29  1  0
  3 30  1  0
  3 31  1  0
  3 32  1  0
  4 33  1  0
  4 34  1  0
  4 35  1  0
 11 36  1  0
 11 37  1  0
 13 38  1  0
 15 39  1  0
 16 40  1  0
 19 41  1  0
 20 42  1  0
 22 43  1  0
 22 44  1  0
 23 45  1  0
 25 46  1  0
M  END
>  <smiles>  (2) 
CC(C)(C)OC(=O)n1c(C(N)=O)cc2ccc(-c3ccc(CO)o3)cc21

>  <score_type>  (2) 
oracle

>  <origin>  (2) 
adg

>  <m_score__min__energy>  (2) 
-8.0500000000000007

>  <m_primary>  (2) 
energy

$$$$
2:0
     RDKit          3D

 53 55  0  0  0  0  0  0  0  0999 V2000
  138.4290  160.4310  130.8000 C   0  0  0  0  0  0  0  0  0  0  0  0
  139.4980  160.4740  131.7270 O   0  0  0  0  0  0  0  0  0  0  0  0
  140.1200  159.3460  132.2480 C   0  0  0  0  0  0  0  0  0  0  0  0
  139.7750  158.2190  131.8290 O   0  0  0  0  0  0  0  0  0  0  0  0
  141.1590  159.5360  133.2720 C   0  0  0  0  0  0  0  0  0  0  0  0
  141.1350  159.1010  134.5940 C   0  0  0  0  0  0  0  0  0  0  0  0
  142.3100  159.4960  135.1910 C   0  0  0  0  0  0  0  0  0  0  0  0
  143.0120  160.1640  134.2040 C   0  0  0  0  0  0  0  0  0  0  0  0
  144.3610  160.7580  134.4510 C   0  0  0  0  0  0  0  0  0  0  0  0
  145.1550  160.5780  133.2530 N   0  0  0  0  0  0  0  0  0  0  0  0
  146.1260  159.5260  133.1870 C   0  0  0  0  0  0  0  0  0  0  0  0
  147.4750  159.8070  133.1610 C   0  0  0  0  0  0  0  0  0  0  0  0
  148.3820  158.7710  133.0970 C   0  0  0  0  0  0  0  0  0  0  0  0
  147.9190  157.4730  133.0610 C   0  0  0  0  0  0  0  0  0  0  0  0
  148.5920  156.2810  132.9970 C   0  0  0  0  0  0  0  0  0  0  0  0
  147.6650  155.2300  132.9840 C   0  0  0  0  0  0  0  0  0  0  0  0
  148.0760  153.8440  132.9200 C   0  0  0  0  0  0  0  0  0  0  0  0
  147.0890  152.8210  132.6530 N   0  0  0  0  0  0  0  0  0  0  0  0
  149.2410  153.4130  133.0760 O   0  0  0  0  0  0  0  0  0  0  0  0
  146.4420  155.7840  133.0370 N   0  0  0  0  0  0  0  0  0  0  0  0
  145.1960  155.1090  133.0470 C   0  0  0  0  0  0  0  0  0  0  0  0
  144.8770  154.4270  132.0070 O   0  0  0  0  0  0  0  0  0  0  0  0
  144.2830  155.1030  134.0550 O   0  0  0  0  0  0  0  0  0  0  0  0
  142.9740  155.5420  134.0640 C   0  0  0  0  0  0  0  0  0  0  0  0
  142.8280  156.6080  133.0050 C   0  0  0  0  0  0  0  0  0  0  0  0
  142.0940  154.3730  133.6170 C   0  0  0  0  0  0  0  0  0  0  0  0
  142.4740  156.0470  135.3880 C   0  0  0  0  0  0  0  0  0  0  0  0
  146.5800  157.1420  133.0850 C   0  0  0  0  0  0  0  0  0  0  0  0
  145.6880  158.1970  133.1490 C   0  0  0  0  0  0  0  0  0  0  0  0
  142.3030  160.1590  133.1130 O   0  0  0  0  0  0  0  0  0  0  0  0
  137.4735  160.3926  131.3437 H   0  0  0  0  0  0  0  0  0  0  0  0
  138.4553  161.3309  130.1680 H   0  0  0  0  0  0  0  0  0  0  0  0
  138.5275  159.5361  130.1680 H   0  0  0  0  0  0  0  0  0  0  0  0
  140.3206  158.5405  135.0762 H   0  0  0  0  0  0  0  0  0  0  0  0
  142.6238  159.3186  136.2303 H   0  0  0  0  0  0  0  0  0  0  0  0
  144.2614  161.8303  134.6754 H   0  0  0  0  0  0  0  0  0  0  0  0
  144.8445  160.2657  135.3077 H   0  0  0  0  0  0  0  0  0  0  0  0
  145.0450  161.1980  132.4220 H   0  0  0  0  0  0  0  0  0  0  0  0
  147.8250  160.8494  133.1911 H   0  0  0  0  0  0  0  0  0  0  0  0
  149.4622  158.9775  133.0749 H   0  0  0  0  0  0  0  0  0  0  0  0
  149.6855  156.1672  132.9615 H   0  0  0  0  0  0  0  0  0  0  0  0
  147.0750  151.9890  133.2810 H   0  0  0  0  0  0  0  0  0  0  0  0
  146.4170  152.9400  131.8400 H   0  0  0  0  0  0  0  0  0  0  0  0
  142.6938  157.5877  133.4869 H   0  0  0  0  0  0  0  0  0  0  0  0
  143.7317  156.6284  132.3782 H   0  0  0  0  0  0  0  0  0  0  0  0
  141.9521  156.3847  132.3782 H   0  0  0  0  0  0  0  0  0  0  0  0
  141.7009  153.8508  134.5017 H   0  0  0  0  0  0  0  0  0  0  0  0
  141.2566  154.7540  133.0140 H   0  0  0  0  0  0  0  0  0  0  0  0
  142.6918  153.6737  133.0140 H   0  0  0  0  0  0  0  0  0  0  0  0
  142.9949  155.5209  136.2015 H   0  0  0  0  0  0  0  0  0  0  0  0
  142.6688  157.1268  135.4658 H   0  0  0  0  0  0  0  0  0  0  0  0
  141.3923  155.8630  135.4658 H   0  0  0  0  0  0  0  0  0  0  0  0
  144.6085  157.9867  133.1706 H   0  0  0  0  0  0  0  0  0  0  0  0
  1  2  1  0
  2  3  1  0
  3  4  2  0
  3  5  1  0
  5  6  2  0
  6  7  1  0
  7  8  2  0
  8  9  1  0
  9 10  1  0
 10 11  1  0
 11 12  2  0
 12 13  1  0
 13 14  2  0
 14 15  1  0
 15 16  2  0
 16 17  1  0
 17 18  1  0
 17 19  2  0
 16 20  1  0
 20 21  1  0
 21 22  2  0
 21 23  1  0
 23 24  1  0
 24 25  1  0
 24 26  1  0
 24 27  1  0
 20 28  1  0
 28 29  2  0
  8 30  1  0
 30  5  1  0
 29 11  1  0
 28 14  1  0
  1 31  1  0
  1 32  1  0
  1 33  1  0
  6 34  1  0
  7 35  1  0
  9 36  1  0
  9 37  1  0
 10 38  1  0
 12 39  1  0
 13 40  1  0
 15 41  1  0
 18 42  1  0
 18 43  1  0
 25 44  1  0
 25 45  1  0
 25 46  1  0
 26 47  1  0
 26 48  1  0
 26 49  1  0
 27 50  1  0
 27 51  1  0
 27 52  1  0
 29 53  1  0
M  END
>  <smiles>  (3) 
COC(=O)c1ccc(CNc2ccc3cc(C(N)=O)n(C(=O)OC(C)(C)C)c3c2)o1

>  <score_type>  (3) 
oracle

>  <origin>  (3) 
adg

>  <m_score__min__energy>  (3) 
-8.5600000000000005

>  <m_primary>  (3) 
energy

$$$$
3:0
     RDKit          3D

 55 57  0  0  0  0  0  0  0  0999 V2000
  138.4660  159.0690  131.4530 C   0  0  0  0  0  0  0  0  0  0  0  0
  138.1290  158.2920  132.6300 N   0  0  0  0  0  0  0  0  0  0  0  0
  139.1940  157.3880  133.0060 C   0  0  0  0  0  0  0  0  0  0  0  0
  139.8830  157.8320  134.2790 C   0  0  0  0  0  0  0  0  0  0  0  0
  141.2490  157.3850  134.2960 N   0  0  0  0  0  0  0  0  0  0  0  0
  141.4850  155.9730  134.5430 C   0  0  0  0  0  0  0  0  0  0  0  0
  142.3860  158.2150  134.1030 C   0  0  0  0  0  0  0  0  0  0  0  0
  142.2590  159.5880  134.1070 C   0  0  0  0  0  0  0  0  0  0  0  0
  143.3700  160.3710  133.9120 C   0  0  0  0  0  0  0  0  0  0  0  0
  144.5940  159.7710  133.7140 C   0  0  0  0  0  0  0  0  0  0  0  0
  145.8140  160.3150  133.5060 C   0  0  0  0  0  0  0  0  0  0  0  0
  146.7660  159.2800  133.3600 C   0  0  0  0  0  0  0  0  0  0  0  0
  148.1530  159.6140  133.1190 C   0  0  0  0  0  0  0  0  0  0  0  0
  149.2110  158.7360  133.6090 N   0  0  0  0  0  0  0  0  0  0  0  0
  148.6060  160.6060  132.5120 O   0  0  0  0  0  0  0  0  0  0  0  0
  146.1010  158.1150  133.4840 N   0  0  0  0  0  0  0  0  0  0  0  0
  146.7210  156.8610  133.4020 C   0  0  0  0  0  0  0  0  0  0  0  0
  147.4170  156.4780  134.4080 O   0  0  0  0  0  0  0  0  0  0  0  0
  146.7050  155.9230  132.3620 N   0  0  0  0  0  0  0  0  0  0  0  0
  147.4510  154.7050  132.5760 C   0  0  0  0  0  0  0  0  0  0  0  0
  146.6920  153.5640  132.7500 C   0  0  0  0  0  0  0  0  0  0  0  0
  147.3240  152.3560  132.9680 C   0  0  0  0  0  0  0  0  0  0  0  0
  148.7220  152.3310  133.0060 C   0  0  0  0  0  0  0  0  0  0  0  0
  149.4640  150.7810  133.2840 S   0  0  0  0  0  0  0  0  0  0  0  0
  149.5950  150.4420  134.9730 N   0  0  0  0  0  0  0  0  0  0  0  0
  150.8760  150.7710  132.7340 O   0  0  0  0  0  0  0  0  0  0  0  0
  148.6800  149.7070  132.6320 O   0  0  0  0  0  0  0  0  0  0  0  0
  149.4650  153.4940  132.8280 C   0  0  0  0  0  0  0  0  0  0  0  0
  148.8320  154.7040  132.6090 C   0  0  0  0  0  0  0  0  0  0  0  0
  144.7780  158.3990  133.7000 C   0  0  0  0  0  0  0  0  0  0  0  0
  143.6440  157.6500  133.9000 C   0  0  0  0  0  0  0  0  0  0  0  0
  138.8862  160.0378  131.7611 H   0  0  0  0  0  0  0  0  0  0  0  0
  139.2077  158.5219  130.8525 H   0  0  0  0  0  0  0  0  0  0  0  0
  137.5598  159.2367  130.8525 H   0  0  0  0  0  0  0  0  0  0  0  0
  137.2030  157.8610  132.6180 H   0  0  0  0  0  0  0  0  0  0  0  0
  138.7714  156.3843  133.1609 H   0  0  0  0  0  0  0  0  0  0  0  0
  139.9395  157.3816  132.1972 H   0  0  0  0  0  0  0  0  0  0  0  0
  139.8610  158.9302  134.3381 H   0  0  0  0  0  0  0  0  0  0  0  0
  139.3555  157.3946  135.1395 H   0  0  0  0  0  0  0  0  0  0  0  0
  141.5155  155.7905  135.6273 H   0  0  0  0  0  0  0  0  0  0  0  0
  140.6732  155.3816  134.0943 H   0  0  0  0  0  0  0  0  0  0  0  0
  142.4450  155.6777  134.0943 H   0  0  0  0  0  0  0  0  0  0  0  0
  141.2746  160.0528  134.2653 H   0  0  0  0  0  0  0  0  0  0  0  0
  143.2833  161.4676  133.9139 H   0  0  0  0  0  0  0  0  0  0  0  0
  146.0315  161.3922  133.4580 H   0  0  0  0  0  0  0  0  0  0  0  0
  149.2910  158.6010  134.6400 H   0  0  0  0  0  0  0  0  0  0  0  0
  149.8570  158.2670  132.9390 H   0  0  0  0  0  0  0  0  0  0  0  0
  146.2310  156.0270  131.4960 H   0  0  0  0  0  0  0  0  0  0  0  0
  145.5938  153.6174  132.7152 H   0  0  0  0  0  0  0  0  0  0  0  0
  146.7411  151.4338  133.1087 H   0  0  0  0  0  0  0  0  0  0  0  0
  148.6470  150.2460  135.3890 H   0  0  0  0  0  0  0  0  0  0  0  0
  150.1950  149.5900  135.1060 H   0  0  0  0  0  0  0  0  0  0  0  0
  150.5636  153.4507  132.8617 H   0  0  0  0  0  0  0  0  0  0  0  0
  149.4068  155.6310  132.4664 H   0  0  0  0  0  0  0  0  0  0  0  0
  143.7328  156.5536  133.8999 H   0  0  0  0  0  0  0  0  0  0  0  0
  1  2  1  0
  2  3  1  0
  3  4  1  0
  4  5  1  0
  5  6  1  0
  5  7  1  0
  7  8  2  0
  8  9  1  0
  9 10  2  0
 10 11  1  0
 11 12  2  0
 12 13  1  0
 13 14  1  0
 13 15  2  0
 12 16  1  0
 16 17  1  0
 17 18  2  0
 17 19  1  0
 19 20  1  0
 20 21  2  0
 21 22  1  0
 22 23  2  0
 23 24  1  0
 24 25  1  0
 24 26  2  0
 24 27  2  0
 23 28  1  0
 28 29  2  0
 16 30  1  0
 30 31  2  0
 31  7  1  0
 30 10  1  0
 29 20  1  0
  1 32  1  0
  1 33  1  0
  1 34  1  0
  2 35  1  0
  3 36  1  0
  3 37  1  0
  4 38  1  0
  4 39  1  0
  6 40  1  0
  6 41  1  0
  6 42  1  0
  8 43  1  0
  9 44  1  0
 11 45  1  0
 14 46  1  0
 14 47  1  0
 19 48  1  0
 21 49  1  0
 22 50  1  0
 25 51  1  0
 25 52  1  0
 28 53  1  0
 29 54  1  0
 31 55  1  0
M  END
>  <smiles>  (4) 
CNCCN(C)c1ccc2cc(C(N)=O)n(C(=O)Nc3ccc(S(N)(=O)=O)cc3)c2c1

>  <score_type>  (4) 
oracle

>  <origin>  (4) 
adg

>  <m_score__min__energy>  (4) 
-11.06

>  <m_primary>  (4) 
energy

$$$$
4:0
     RDKit          3D

 38 39  0  0  0  0  0  0  0  0999 V2000
  147.8540  153.1050  132.7830 N   0  0  0  0  0  0  0  0  0  0  0  0
  148.7070  154.2980  132.7920 C   0  0  0  0  0  0  0  0  0  0  0  0
  149.9090  154.0100  132.6450 O   0  0  0  0  0  0  0  0  0  0  0  0
  148.1060  155.6010  132.9590 C   0  0  0  0  0  0  0  0  0  0  0  0
  148.8170  156.7580  132.5890 C   0  0  0  0  0  0  0  0  0  0  0  0
  148.0480  157.8370  132.8470 C   0  0  0  0  0  0  0  0  0  0  0  0
  148.3030  159.1800  132.6350 C   0  0  0  0  0  0  0  0  0  0  0  0
  147.3610  160.1270  132.9450 C   0  0  0  0  0  0  0  0  0  0  0  0
  146.1690  159.6870  133.4690 C   0  0  0  0  0  0  0  0  0  0  0  0
  145.1500  160.7170  133.8030 C   0  0  0  0  0  0  0  0  0  0  0  0
  145.8080  161.7270  134.4790 F   0  0  0  0  0  0  0  0  0  0  0  0
  144.1390  160.1610  134.5730 F   0  0  0  0  0  0  0  0  0  0  0  0
  145.9290  158.3270  133.6770 C   0  0  0  0  0  0  0  0  0  0  0  0
  146.8670  157.3610  133.3720 C   0  0  0  0  0  0  0  0  0  0  0  0
  146.8890  155.9960  133.4500 N   0  0  0  0  0  0  0  0  0  0  0  0
  145.9430  155.1220  134.0150 C   0  0  0  0  0  0  0  0  0  0  0  0
  146.4830  154.1260  134.6660 O   0  0  0  0  0  0  0  0  0  0  0  0
  144.5610  155.0890  134.0400 N   0  0  0  0  0  0  0  0  0  0  0  0
  143.6860  155.3890  135.0020 F   0  0  0  0  0  0  0  0  0  0  0  0
  143.8870  154.6420  132.7830 C   0  0  0  0  0  0  0  0  0  0  0  0
  143.8240  153.1540  132.6920 C   0  0  2  0  0  0  0  0  0  0  0  0
  143.8740  152.6570  134.0160 O   0  0  0  0  0  0  0  0  0  0  0  0
  145.0560  152.5790  131.9880 C   0  0  0  0  0  0  0  0  0  0  0  0
  145.7770  151.7720  132.8580 O   0  0  0  0  0  0  0  0  0  0  0  0
  147.5810  152.6590  133.6920 H   0  0  0  0  0  0  0  0  0  0  0  0
  147.5250  152.7100  131.8790 H   0  0  0  0  0  0  0  0  0  0  0  0
  149.8301  156.7794  132.1611 H   0  0  0  0  0  0  0  0  0  0  0  0
  149.2704  159.4911  132.2138 H   0  0  0  0  0  0  0  0  0  0  0  0
  147.5520  161.1977  132.7806 H   0  0  0  0  0  0  0  0  0  0  0  0
  144.6718  161.1179  132.8971 H   0  0  0  0  0  0  0  0  0  0  0  0
  144.9614  158.0154  134.0974 H   0  0  0  0  0  0  0  0  0  0  0  0
  142.8634  155.0443  132.7645 H   0  0  0  0  0  0  0  0  0  0  0  0
  144.4713  155.0142  131.9286 H   0  0  0  0  0  0  0  0  0  0  0  0
  142.9149  152.8753  132.1389 H   0  0  0  0  0  0  0  0  0  0  0  0
  144.7520  152.8660  134.4090 H   0  0  0  0  0  0  0  0  0  0  0  0
  144.7333  151.9816  131.1226 H   0  0  0  0  0  0  0  0  0  0  0  0
  145.6974  153.4087  131.6560 H   0  0  0  0  0  0  0  0  0  0  0  0
  145.9450  152.2300  133.7280 H   0  0  0  0  0  0  0  0  0  0  0  0
  1  2  1  0
  2  3  2  0
  2  4  1  0
  4  5  2  0
  5  6  1  0
  6  7  2  0
  7  8  1  0
  8  9  2  0
  9 10  1  0
 10 11  1  0
 10 12  1  0
  9 13  1  0
 13 14  2  0
 14 15  1  0
 15 16  1  0
 16 17  2  0
 16 18  1  0
 18 19  1  0
 18 20  1  0
 20 21  1  0
 21 22  1  0
 21 23  1  0
 23 24  1  0
 15  4  1  0
 14  6  1  0
  1 25  1  0
  1 26  1  0
  5 27  1  0
  7 28  1  0
  8 29  1  0
 10 30  1  0
 13 31  1  0
 20 32  1  0
 20 33  1  0
 21 34  1  6
 22 35  1  0
 23 36  1  0
 23 37  1  0
 24 38  1  0
M  END
>  <smiles>  (5) 
NC(=O)c1cc2ccc(C(F)F)cc2n1C(=O)N(F)C[C@H](O)CO

>  <score_type>  (5) 
oracle

>  <origin>  (5) 
adg

>  <m_score__min__energy>  (5) 
-6.4199999999999999

>  <m_primary>  (5) 
energy

$$$$
5:0
     RDKit          3D

 34 35  0  0  0  0  0  0  0  0999 V2000
  148.4870  155.2700  132.8970 C   0  0  0  0  0  0  0  0  0  0  0  0
  147.9500  156.6630  133.0130 C   0  0  0  0  0  0  0  0  0  0  0  0
  148.8190  157.7130  132.9340 C   0  0  0  0  0  0  0  0  0  0  0  0
  148.3170  158.9820  133.0420 C   0  0  0  0  0  0  0  0  0  0  0  0
  146.9630  159.1820  133.2270 C   0  0  0  0  0  0  0  0  0  0  0  0
  146.2620  160.3360  133.3580 C   0  0  0  0  0  0  0  0  0  0  0  0
  144.9040  159.9830  133.5260 C   0  0  0  0  0  0  0  0  0  0  0  0
  143.9250  161.0170  133.7610 C   0  0  0  0  0  0  0  0  0  0  0  0
  142.5220  160.8630  133.8170 N   0  0  0  0  0  0  0  0  0  0  0  0
  144.3530  162.2050  133.9520 O   0  0  0  0  0  0  0  0  0  0  0  0
  144.7860  158.6460  133.4910 N   0  0  0  0  0  0  0  0  0  0  0  0
  143.6680  157.8000  133.4300 C   0  0  0  0  0  0  0  0  0  0  0  0
  143.2640  157.4560  132.2510 O   0  0  0  0  0  0  0  0  0  0  0  0
  142.8560  157.2360  134.5140 C   0  0  0  0  0  0  0  0  0  0  0  0
  141.7640  157.9740  134.9170 O   0  0  0  0  0  0  0  0  0  0  0  0
  140.6640  158.0680  133.6090 P   0  0  0  0  0  0  0  0  0  0  0  0
  139.3080  158.3500  134.2620 O   0  0  0  0  0  0  0  0  0  0  0  0
  141.0700  159.2960  132.5350 O   0  0  0  0  0  0  0  0  0  0  0  0
  140.5700  156.6030  132.8070 O   0  0  0  0  0  0  0  0  0  0  0  0
  146.0580  158.1550  133.3110 C   0  0  0  0  0  0  0  0  0  0  0  0
  146.5780  156.8760  133.2000 C   0  0  0  0  0  0  0  0  0  0  0  0
  148.6474  154.8540  133.9026 H   0  0  0  0  0  0  0  0  0  0  0  0
  147.7660  154.6433  132.3516 H   0  0  0  0  0  0  0  0  0  0  0  0
  149.4421  155.2894  132.3516 H   0  0  0  0  0  0  0  0  0  0  0  0
  149.8959  157.5435  132.7872 H   0  0  0  0  0  0  0  0  0  0  0  0
  148.9949  159.8461  132.9812 H   0  0  0  0  0  0  0  0  0  0  0  0
  146.6737  161.3558  133.3373 H   0  0  0  0  0  0  0  0  0  0  0  0
  142.1070  160.0200  134.3100 H   0  0  0  0  0  0  0  0  0  0  0  0
  141.8390  161.5350  133.3960 H   0  0  0  0  0  0  0  0  0  0  0  0
  142.4899  156.2539  134.1801 H   0  0  0  0  0  0  0  0  0  0  0  0
  143.5226  157.2044  135.3885 H   0  0  0  0  0  0  0  0  0  0  0  0
  141.8050  159.0150  131.9030 H   0  0  0  0  0  0  0  0  0  0  0  0
  141.3780  156.4100  132.2380 H   0  0  0  0  0  0  0  0  0  0  0  0
  145.9009  156.0112  133.2598 H   0  0  0  0  0  0  0  0  0  0  0  0
  1  2  1  0
  2  3  2  0
  3  4  1  0
  4  5  2  0
  5  6  1  0
  6  7  2  0
  7  8  1  0
  8  9  1  0
  8 10  2  0
  7 11  1  0
 11 12  1  0
 12 13  2  0
 12 14  1  0
 14 15  1  0
 15 16  1  0
 16 17  2  0
 16 18  1  0
 16 19  1  0
 11 20  1  0
 20 21  2  0
 21  2  1  0
 20  5  1  0
  1 22  1  0
  1 23  1  0
  1 24  1  0
  3 25  1  0
  4 26  1  0
  6 27  1  0
  9 28  1  0
  9 29  1  0
 14 30  1  0
 14 31  1  0
 18 32  1  0
 19 33  1  0
 21 34  1  0
M  END
>  <smiles>  (6) 
Cc1ccc2cc(C(N)=O)n(C(=O)COP(=O)(O)O)c2c1

>  <score_type>  (6) 
oracle

>  <origin>  (6) 
adg

>  <m_score__min__energy>  (6) 
-6.5899999999999999

>  <m_primary>  (6) 
energy

$$$$
6:0
     RDKit          3D

 43 44  0  0  0  0  0  0  0  0999 V2000
  149.5040  159.6000  131.8660 C   0  0  0  0  0  0  0  0  0  0  0  0
  148.3270  158.8940  132.4420 C   0  0  0  0  0  0  0  0  0  0  0  0
  147.1570  159.6120  132.6230 C   0  0  0  0  0  0  0  0  0  0  0  0
  146.0670  158.9670  133.1540 C   0  0  0  0  0  0  0  0  0  0  0  0
  146.1400  157.6300  133.4990 C   0  0  0  0  0  0  0  0  0  0  0  0
  145.2220  156.7770  134.0320 C   0  0  0  0  0  0  0  0  0  0  0  0
  145.8020  155.5050  134.1950 C   0  0  0  0  0  0  0  0  0  0  0  0
  145.0810  154.3790  134.7400 C   0  0  0  0  0  0  0  0  0  0  0  0
  145.2800  153.0930  134.1390 N   0  0  0  0  0  0  0  0  0  0  0  0
  144.2800  154.3880  135.7000 O   0  0  0  0  0  0  0  0  0  0  0  0
  147.0770  155.6060  133.7550 N   0  0  0  0  0  0  0  0  0  0  0  0
  148.0620  154.5590  133.7250 C   0  0  0  0  0  0  0  0  0  0  0  0
  148.0620  153.6840  134.6020 O   0  0  0  0  0  0  0  0  0  0  0  0
  148.9660  154.5410  132.7550 O   0  0  0  0  0  0  0  0  0  0  0  0
  149.9570  153.7950  132.2260 C   0  0  0  0  0  0  0  0  0  0  0  0
  149.7740  152.7680  131.3530 O   0  0  0  0  0  0  0  0  0  0  0  0
  149.8420  151.4400  131.4840 C   0  0  0  0  0  0  0  0  0  0  0  0
  150.6280  150.7420  130.8250 O   0  0  0  0  0  0  0  0  0  0  0  0
  148.9500  150.7500  132.4540 C   0  0  1  0  0  0  0  0  0  0  0  0
  148.8440  151.5350  133.6830 N   0  0  0  0  0  0  0  0  0  0  0  0
  147.6040  150.3970  131.9480 C   0  0  0  0  0  0  0  0  0  0  0  0
  146.5170  151.3420  132.2130 C   0  0  0  0  0  0  0  0  0  0  0  0
  145.3250  151.0920  132.4170 O   0  0  0  0  0  0  0  0  0  0  0  0
  146.8750  152.7100  132.2400 O   0  0  0  0  0  0  0  0  0  0  0  0
  147.2850  156.8940  133.3320 C   0  0  0  0  0  0  0  0  0  0  0  0
  148.3780  157.5530  132.7960 C   0  0  0  0  0  0  0  0  0  0  0  0
  150.1381  159.9804  132.6804 H   0  0  0  0  0  0  0  0  0  0  0  0
  150.0839  158.9005  131.2460 H   0  0  0  0  0  0  0  0  0  0  0  0
  149.1599  160.4409  131.2460 H   0  0  0  0  0  0  0  0  0  0  0  0
  147.1018  160.6755  132.3476 H   0  0  0  0  0  0  0  0  0  0  0  0
  145.1277  159.5188  133.3062 H   0  0  0  0  0  0  0  0  0  0  0  0
  144.1870  157.0413  134.2946 H   0  0  0  0  0  0  0  0  0  0  0  0
  144.4560  152.4680  133.9430 H   0  0  0  0  0  0  0  0  0  0  0  0
  146.2300  152.7680  133.8910 H   0  0  0  0  0  0  0  0  0  0  0  0
  150.6172  154.5068  131.7088 H   0  0  0  0  0  0  0  0  0  0  0  0
  150.2905  153.2434  133.1174 H   0  0  0  0  0  0  0  0  0  0  0  0
  149.4349  149.7820  132.6486 H   0  0  0  0  0  0  0  0  0  0  0  0
  147.8180  151.6260  133.9250 H   0  0  0  0  0  0  0  0  0  0  0  0
  149.2190  152.5030  133.5030 H   0  0  0  0  0  0  0  0  0  0  0  0
  147.6815  150.2802  130.8570 H   0  0  0  0  0  0  0  0  0  0  0  0
  147.3259  149.4858  132.4979 H   0  0  0  0  0  0  0  0  0  0  0  0
  147.8630  152.9340  132.3590 H   0  0  0  0  0  0  0  0  0  0  0  0
  149.3153  156.9970  132.6461 H   0  0  0  0  0  0  0  0  0  0  0  0
  1  2  1  0
  2  3  2  0
  3  4  1  0
  4  5  2  0
  5  6  1  0
  6  7  2  0
  7  8  1  0
  8  9  1  0
  8 10  2  0
  7 11  1  0
 11 12  1  0
 12 13  2  0
 12 14  1  0
 14 15  1  0
 15 16  1  0
 16 17  1  0
 17 18  2  0
 17 19  1  0
 19 20  1  0
 19 21  1  0
 21 22  1  0
 22 23  2  0
 22 24  1  0
 11 25  1  0
 25 26  2  0
 26  2  1  0
 25  5  1  0
  1 27  1  0
  1 28  1  0
  1 29  1  0
  3 30  1  0
  4 31  1  0
  6 32  1  0
  9 33  1  0
  9 34  1  0
 15 35  1  0
 15 36  1  0
 19 37  1  1
 20 38  1  0
 20 39  1  0
 21 40  1  0
 21 41  1  0
 24 42  1  0
 26 43  1  0
M  END
>  <smiles>  (7) 
Cc1ccc2cc(C(N)=O)n(C(=O)OCOC(=O)[C@@H](N)CC(=O)O)c2c1

>  <score_type>  (7) 
oracle

>  <origin>  (7) 
adg

>  <m_score__min__energy>  (7) 
-5.4800000000000004

>  <m_primary>  (7) 
energy

$$$$
7:0
     RDKit          3D

 47 48  0  0  0  0  0  0  0  0999 V2000
  141.4840  155.9700  137.0860 C   0  0  0  0  0  0  0  0  0  0  0  0
  142.5610  155.4540  136.1230 C   0  0  0  0  0  0  0  0  0  0  0  0
  142.8680  156.5360  135.2630 O   0  0  0  0  0  0  0  0  0  0  0  0
  141.8890  157.1130  134.4530 C   0  0  0  0  0  0  0  0  0  0  0  0
  141.0970  156.3750  133.8130 O   0  0  0  0  0  0  0  0  0  0  0  0
  141.8430  158.6040  134.3990 C   0  0  0  0  0  0  0  0  0  0  0  0
  143.1820  159.0980  134.4450 N   0  0  0  0  0  0  0  0  0  0  0  0
  144.1840  158.7170  133.4810 C   0  0  0  0  0  0  0  0  0  0  0  0
  143.7680  157.9160  132.6090 O   0  0  0  0  0  0  0  0  0  0  0  0
  145.5200  159.2490  133.5770 C   0  0  0  0  0  0  0  0  0  0  0  0
  145.5860  160.4850  133.9280 O   0  0  0  0  0  0  0  0  0  0  0  0
  146.7500  158.6150  133.3330 N   0  0  0  0  0  0  0  0  0  0  0  0
  147.2010  157.3870  133.6150 C   0  0  0  0  0  0  0  0  0  0  0  0
  146.7210  156.3840  134.5520 C   0  0  0  0  0  0  0  0  0  0  0  0
  145.2960  156.2840  134.7950 N   0  0  0  0  0  0  0  0  0  0  0  0
  147.4200  155.5720  135.1930 O   0  0  0  0  0  0  0  0  0  0  0  0
  148.4370  157.1710  132.9700 C   0  0  0  0  0  0  0  0  0  0  0  0
  148.7290  158.3150  132.2910 C   0  0  0  0  0  0  0  0  0  0  0  0
  149.8280  158.6070  131.5060 C   0  0  0  0  0  0  0  0  0  0  0  0
  149.9350  159.8370  130.8960 C   0  0  0  0  0  0  0  0  0  0  0  0
  148.9150  160.7390  131.1050 C   0  0  0  0  0  0  0  0  0  0  0  0
  149.0220  162.0660  130.4530 C   0  0  0  0  0  0  0  0  0  0  0  0
  147.8080  160.4270  131.9040 C   0  0  0  0  0  0  0  0  0  0  0  0
  147.6970  159.1860  132.5190 C   0  0  0  0  0  0  0  0  0  0  0  0
  141.1370  159.1200  135.6750 C   0  0  0  0  0  0  0  0  0  0  0  0
  139.9340  158.5050  135.8750 F   0  0  0  0  0  0  0  0  0  0  0  0
  142.0150  158.9250  136.7080 F   0  0  0  0  0  0  0  0  0  0  0  0
  141.0010  160.4810  135.4940 F   0  0  0  0  0  0  0  0  0  0  0  0
  140.9690  159.0090  133.2890 C   0  0  0  0  0  0  0  0  0  0  0  0
  141.0620  158.2810  132.1250 F   0  0  0  0  0  0  0  0  0  0  0  0
  139.6620  158.7370  133.7380 F   0  0  0  0  0  0  0  0  0  0  0  0
  140.9320  160.3710  133.0520 F   0  0  0  0  0  0  0  0  0  0  0  0
  141.8137  155.8120  138.1235 H   0  0  0  0  0  0  0  0  0  0  0  0
  141.3211  157.0440  136.9125 H   0  0  0  0  0  0  0  0  0  0  0  0
  140.5450  155.4240  136.9125 H   0  0  0  0  0  0  0  0  0  0  0  0
  143.4564  155.1443  136.6818 H   0  0  0  0  0  0  0  0  0  0  0  0
  142.2094  154.5781  135.5580 H   0  0  0  0  0  0  0  0  0  0  0  0
  143.4720  159.7760  135.2140 H   0  0  0  0  0  0  0  0  0  0  0  0
  144.6570  156.4740  133.9860 H   0  0  0  0  0  0  0  0  0  0  0  0
  144.9310  156.0290  135.7480 H   0  0  0  0  0  0  0  0  0  0  0  0
  149.0466  156.2562  133.0081 H   0  0  0  0  0  0  0  0  0  0  0  0
  150.6192  157.8553  131.3680 H   0  0  0  0  0  0  0  0  0  0  0  0
  150.8010  160.0894  130.2665 H   0  0  0  0  0  0  0  0  0  0  0  0
  149.0851  162.8489  131.2231 H   0  0  0  0  0  0  0  0  0  0  0  0
  149.9254  162.0947  129.8260 H   0  0  0  0  0  0  0  0  0  0  0  0
  148.1349  162.2391  129.8260 H   0  0  0  0  0  0  0  0  0  0  0  0
  147.0146  161.1755  132.0468 H   0  0  0  0  0  0  0  0  0  0  0  0
  1  2  1  0
  2  3  1  0
  3  4  1  0
  4  5  2  0
  4  6  1  0
  6  7  1  0
  7  8  1  0
  8  9  2  0
  8 10  1  0
 10 11  2  0
 10 12  1  0
 12 13  1  0
 13 14  1  0
 14 15  1  0
 14 16  2  0
 13 17  2  0
 17 18  1  0
 18 19  2  0
 19 20  1  0
 20 21  2  0
 21 22  1  0
 21 23  1  0
 23 24  2  0
  6 25  1  0
 25 26  1  0
 25 27  1  0
 25 28  1  0
  6 29  1  0
 29 30  1  0
 29 31  1  0
 29 32  1  0
 24 12  1  0
 24 18  1  0
  1 33  1  0
  1 34  1  0
  1 35  1  0
  2 36  1  0
  2 37  1  0
  7 38  1  0
 15 39  1  0
 15 40  1  0
 17 41  1  0
 19 42  1  0
 20 43  1  0
 22 44  1  0
 22 45  1  0
 22 46  1  0
 23 47  1  0
M  END
>  <smiles>  (8) 
CCOC(=O)C(NC(=O)C(=O)n1c(C(N)=O)cc2ccc(C)cc21)(C(F)(F)F)C(F)(F)F

>  <score_type>  (8) 
oracle

>  <origin>  (8) 
adg

>  <m_score__min__energy>  (8) 
-7.5899999999999999

>  <m_primary>  (8) 
energy

$$$$
8:0
     RDKit          3D

 43 44  0  0  0  0  0  0  0  0999 V2000
  149.1480  152.9600  137.6540 C   0  0  0  0  0  0  0  0  0  0  0  0
  147.7900  152.5620  137.4340 N   0  0  0  0  0  0  0  0  0  0  0  0
  147.3340  151.5120  138.2940 C   0  0  0  0  0  0  0  0  0  0  0  0
  146.8360  153.6250  137.3710 C   0  0  0  0  0  0  0  0  0  0  0  0
  146.9020  154.4730  136.1410 C   0  0  0  0  0  0  0  0  0  0  0  0
  146.1690  153.8970  135.0840 O   0  0  0  0  0  0  0  0  0  0  0  0
  145.2210  154.9050  134.7240 C   0  0  0  0  0  0  0  0  0  0  0  0
  145.5960  155.4610  133.3800 C   0  0  0  0  0  0  0  0  0  0  0  0
  144.7770  155.0950  132.4640 O   0  0  0  0  0  0  0  0  0  0  0  0
  146.7040  156.2840  133.1280 N   0  0  0  0  0  0  0  0  0  0  0  0
  147.9360  155.8420  132.8010 C   0  0  0  0  0  0  0  0  0  0  0  0
  148.4690  154.5130  132.6130 C   0  0  0  0  0  0  0  0  0  0  0  0
  147.5490  153.3780  132.6080 N   0  0  0  0  0  0  0  0  0  0  0  0
  149.6510  154.1900  132.4480 O   0  0  0  0  0  0  0  0  0  0  0  0
  148.7400  156.9780  132.6420 C   0  0  0  0  0  0  0  0  0  0  0  0
  147.9940  158.1060  132.8730 C   0  0  0  0  0  0  0  0  0  0  0  0
  148.3360  159.4370  132.8390 C   0  0  0  0  0  0  0  0  0  0  0  0
  147.3690  160.3750  133.1200 C   0  0  0  0  0  0  0  0  0  0  0  0
  146.0890  159.9790  133.4270 C   0  0  0  0  0  0  0  0  0  0  0  0
  145.0120  160.9850  133.7390 C   0  0  0  0  0  0  0  0  0  0  0  0
  143.9740  160.3440  134.4180 F   0  0  0  0  0  0  0  0  0  0  0  0
  145.4860  161.9930  134.5300 F   0  0  0  0  0  0  0  0  0  0  0  0
  145.7880  158.6240  133.4490 C   0  0  0  0  0  0  0  0  0  0  0  0
  146.7240  157.6460  133.1750 C   0  0  0  0  0  0  0  0  0  0  0  0
  149.3428  153.0171  138.7351 H   0  0  0  0  0  0  0  0  0  0  0  0
  149.8247  152.2224  137.1979 H   0  0  0  0  0  0  0  0  0  0  0  0
  149.3195  153.9462  137.1979 H   0  0  0  0  0  0  0  0  0  0  0  0
  147.4654  151.8145  139.3434 H   0  0  0  0  0  0  0  0  0  0  0  0
  146.2693  151.3152  138.0997 H   0  0  0  0  0  0  0  0  0  0  0  0
  147.9170  150.5996  138.0997 H   0  0  0  0  0  0  0  0  0  0  0  0
  145.8304  153.1824  137.4247 H   0  0  0  0  0  0  0  0  0  0  0  0
  147.0700  154.2930  138.2130 H   0  0  0  0  0  0  0  0  0  0  0  0
  146.4856  155.4657  136.3670 H   0  0  0  0  0  0  0  0  0  0  0  0
  147.9542  154.5548  135.8308 H   0  0  0  0  0  0  0  0  0  0  0  0
  144.2139  154.4653  134.6747 H   0  0  0  0  0  0  0  0  0  0  0  0
  145.2241  155.7080  135.4758 H   0  0  0  0  0  0  0  0  0  0  0  0
  146.9240  153.2850  133.4450 H   0  0  0  0  0  0  0  0  0  0  0  0
  147.5260  152.7140  131.8190 H   0  0  0  0  0  0  0  0  0  0  0  0
  149.8066  156.9673  132.3730 H   0  0  0  0  0  0  0  0  0  0  0  0
  149.3624  159.7462  132.5921 H   0  0  0  0  0  0  0  0  0  0  0  0
  147.6213  161.4455  133.0988 H   0  0  0  0  0  0  0  0  0  0  0  0
  144.6598  161.4153  132.7899 H   0  0  0  0  0  0  0  0  0  0  0  0
  144.7610  158.3163  133.6950 H   0  0  0  0  0  0  0  0  0  0  0  0
  1  2  1  0
  2  3  1  0
  2  4  1  0
  4  5  1  0
  5  6  1  0
  6  7  1  0
  7  8  1  0
  8  9  2  0
  8 10  1  0
 10 11  1  0
 11 12  1  0
 12 13  1  0
 12 14  2  0
 11 15  2  0
 15 16  1  0
 16 17  2  0
 17 18  1  0
 18 19  2  0
 19 20  1  0
 20 21  1  0
 20 22  1  0
 19 23  1  0
 23 24  2  0
 24 10  1  0
 24 16  1  0
  1 25  1  0
  1 26  1  0
  1 27  1  0
  3 28  1  0
  3 29  1  0
  3 30  1  0
  4 31  1  0
  4 32  1  0
  5 33  1  0
  5 34  1  0
  7 35  1  0
  7 36  1  0
 13 37  1  0
 13 38  1  0
 15 39  1  0
 17 40  1  0
 18 41  1  0
 20 42  1  0
 23 43  1  0
M  END
>  <smiles>  (9) 
CN(C)CCOCC(=O)n1c(C(N)=O)cc2ccc(C(F)F)cc21

>  <score_type>  (9) 
oracle

>  <origin>  (9) 
adg

>  <m_score__min__energy>  (9) 
-6.7699999999999996

>  <m_primary>  (9) 
energy

$$$$
9:0
     RDKit          3D

 38 39  0  0  1  0  0  0  0  0999 V2000
  148.8320  161.3460  130.8490 C   0  0  0  0  0  0  0  0  0  0  0  0
  148.8510  160.1430  131.6520 N   0  0  0  0  0  0  0  0  0  0  0  0
  149.9280  159.2330  131.4600 C   0  0  0  0  0  0  0  0  0  0  0  0
  150.8980  159.5300  130.7290 O   0  0  0  0  0  0  0  0  0  0  0  0
  149.9470  157.9780  132.0760 O   0  0  0  0  0  0  0  0  0  0  0  0
  147.8350  159.8720  132.6000 C   0  0  0  0  0  0  0  0  0  0  0  0
  148.1780  159.7130  133.9710 N   0  0  0  0  0  0  0  0  0  0  0  0
  146.5800  159.7650  132.2400 N   0  0  0  0  0  0  0  0  0  0  0  0
  145.6250  159.4870  133.2890 C   0  0  0  0  0  0  0  0  0  0  0  0
  145.3630  160.4720  134.0170 O   0  0  0  0  0  0  0  0  0  0  0  0
  145.0760  158.1950  133.4230 N   0  0  0  0  0  0  0  0  0  0  0  0
  145.7540  157.0360  133.4610 C   0  0  0  0  0  0  0  0  0  0  0  0
  147.1680  156.7520  133.3800 C   0  0  0  0  0  0  0  0  0  0  0  0
  147.7030  156.1090  132.2040 N   0  0  0  0  0  0  0  0  0  0  0  0
  148.0220  157.0140  134.2610 O   0  0  0  0  0  0  0  0  0  0  0  0
  144.8040  156.0140  133.6040 C   0  0  0  0  0  0  0  0  0  0  0  0
  143.5510  156.5630  133.6530 C   0  0  0  0  0  0  0  0  0  0  0  0
  142.3060  156.0030  133.7840 C   0  0  0  0  0  0  0  0  0  0  0  0
  141.1990  156.7970  133.8050 C   0  0  0  0  0  0  0  0  0  0  0  0
  141.3400  158.1430  133.6950 C   0  0  0  0  0  0  0  0  0  0  0  0
  140.1150  158.9850  133.7200 C   0  0  0  0  0  0  0  0  0  0  0  0
  140.3980  160.1160  132.9740 F   0  0  0  0  0  0  0  0  0  0  0  0
  142.6000  158.7010  133.5630 C   0  0  0  0  0  0  0  0  0  0  0  0
  143.7550  157.9360  133.5370 C   0  0  0  0  0  0  0  0  0  0  0  0
  148.8181  162.2266  131.5081 H   0  0  0  0  0  0  0  0  0  0  0  0
  149.7298  161.3773  130.2141 H   0  0  0  0  0  0  0  0  0  0  0  0
  147.9337  161.3489  130.2141 H   0  0  0  0  0  0  0  0  0  0  0  0
  149.6120  157.8700  133.0450 H   0  0  0  0  0  0  0  0  0  0  0  0
  148.1090  158.7730  134.4540 H   0  0  0  0  0  0  0  0  0  0  0  0
  148.5030  160.5600  134.4880 H   0  0  0  0  0  0  0  0  0  0  0  0
  147.4330  155.1130  132.0260 H   0  0  0  0  0  0  0  0  0  0  0  0
  148.3440  156.6400  131.5540 H   0  0  0  0  0  0  0  0  0  0  0  0
  145.0305  154.9394  133.6669 H   0  0  0  0  0  0  0  0  0  0  0  0
  142.2010  154.9116  133.8722 H   0  0  0  0  0  0  0  0  0  0  0  0
  140.1989  156.3511  133.9102 H   0  0  0  0  0  0  0  0  0  0  0  0
  139.2698  158.4389  133.2758 H   0  0  0  0  0  0  0  0  0  0  0  0
  139.8357  159.2489  134.7507 H   0  0  0  0  0  0  0  0  0  0  0  0
  142.6877  159.7940  133.4754 H   0  0  0  0  0  0  0  0  0  0  0  0
  1  2  1  0
  2  3  1  0
  3  4  2  0
  3  5  1  0
  2  6  1  0
  6  7  1  0
  6  8  2  0
  8  9  1  0
  9 10  2  0
  9 11  1  0
 11 12  1  0
 12 13  1  0
 13 14  1  0
 13 15  2  0
 12 16  2  0
 16 17  1  0
 17 18  2  0
 18 19  1  0
 19 20  2  0
 20 21  1  0
 21 22  1  0
 20 23  1  0
 23 24  2  0
 24 11  1  0
 24 17  1  0
  1 25  1  0
  1 26  1  0
  1 27  1  0
  5 28  1  0
  7 29  1  0
  7 30  1  0
 14 31  1  0
 14 32  1  0
 16 33  1  0
 18 34  1  0
 19 35  1  0
 21 36  1  0
 21 37  1  0
 23 38  1  0
M  END
>  <smiles>  (10) 
CN(C(=O)O)C(N)=NC(=O)n1c(C(N)=O)cc2ccc(CF)cc21

>  <score_type>  (10) 
oracle

>  <origin>  (10) 
adg

>  <m_score__min__energy>  (10) 
-6.8700000000000001

>  <m_primary>  (10) 
energy

$$$$
10:0
     RDKit          3D

 55 57  0  0  0  0  0  0  0  0999 V2000
  142.0670  148.9390  132.0890 C   0  0  0  0  0  0  0  0  0  0  0  0
  141.3020  150.0150  132.7010 N   0  0  0  0  0  0  0  0  0  0  0  0
  139.8660  149.9360  132.6120 C   0  0  0  0  0  0  0  0  0  0  0  0
  142.0280  151.0440  133.3420 C   0  0  0  0  0  0  0  0  0  0  0  0
  143.2810  150.9490  133.3540 O   0  0  0  0  0  0  0  0  0  0  0  0
  141.4210  152.2230  133.9990 C   0  0  0  0  0  0  0  0  0  0  0  0
  141.2070  153.2830  132.9600 C   0  0  0  0  0  0  0  0  0  0  0  0
  142.4710  154.1200  132.8330 C   0  0  0  0  0  0  0  0  0  0  0  0
  142.5980  154.8000  134.1060 N   0  0  0  0  0  0  0  0  0  0  0  0
  142.6240  156.2180  134.2240 C   0  0  0  0  0  0  0  0  0  0  0  0
  141.4890  156.9020  134.5780 C   0  0  0  0  0  0  0  0  0  0  0  0
  141.5610  158.2710  134.6690 C   0  0  0  0  0  0  0  0  0  0  0  0
  142.7460  158.9190  134.4100 C   0  0  0  0  0  0  0  0  0  0  0  0
  143.0590  160.2450  134.4310 C   0  0  0  0  0  0  0  0  0  0  0  0
  144.4090  160.4130  134.0880 C   0  0  0  0  0  0  0  0  0  0  0  0
  144.9860  161.7390  134.0400 C   0  0  0  0  0  0  0  0  0  0  0  0
  146.4340  161.8830  133.8890 N   0  0  0  0  0  0  0  0  0  0  0  0
  144.4050  162.8380  134.1110 O   0  0  0  0  0  0  0  0  0  0  0  0
  144.9160  159.1770  133.8570 N   0  0  0  0  0  0  0  0  0  0  0  0
  146.2350  158.9490  133.4780 C   0  0  0  0  0  0  0  0  0  0  0  0
  147.1470  159.6030  134.0960 O   0  0  0  0  0  0  0  0  0  0  0  0
  146.7570  158.0900  132.4960 N   0  0  0  0  0  0  0  0  0  0  0  0
  148.2140  158.0820  132.3360 C   0  0  0  0  0  0  0  0  0  0  0  0
  148.6850  159.3150  131.6760 C   0  0  0  0  0  0  0  0  0  0  0  0
  149.8980  159.4180  131.3790 O   0  0  0  0  0  0  0  0  0  0  0  0
  147.7570  160.3280  131.4050 O   0  0  0  0  0  0  0  0  0  0  0  0
  143.9160  158.2670  134.0500 C   0  0  0  0  0  0  0  0  0  0  0  0
  143.8110  156.8950  133.9670 C   0  0  0  0  0  0  0  0  0  0  0  0
  142.6880  154.0070  135.2910 C   0  0  0  0  0  0  0  0  0  0  0  0
  142.1170  152.6420  135.2360 C   0  0  0  0  0  0  0  0  0  0  0  0
  142.5125  148.3124  132.8757 H   0  0  0  0  0  0  0  0  0  0  0  0
  141.4014  148.3252  131.4643 H   0  0  0  0  0  0  0  0  0  0  0  0
  142.8654  149.3660  131.4643 H   0  0  0  0  0  0  0  0  0  0  0  0
  139.4366  149.9124  133.6245 H   0  0  0  0  0  0  0  0  0  0  0  0
  139.4832  150.8145  132.0718 H   0  0  0  0  0  0  0  0  0  0  0  0
  139.5819  149.0209  132.0718 H   0  0  0  0  0  0  0  0  0  0  0  0
  140.4312  151.9637  134.4027 H   0  0  0  0  0  0  0  0  0  0  0  0
  140.9799  152.8102  131.9931 H   0  0  0  0  0  0  0  0  0  0  0  0
  140.3653  153.9265  133.2559 H   0  0  0  0  0  0  0  0  0  0  0  0
  143.3441  153.4767  132.6492 H   0  0  0  0  0  0  0  0  0  0  0  0
  142.4174  154.8253  131.9906 H   0  0  0  0  0  0  0  0  0  0  0  0
  140.5484  156.3699  134.7831 H   0  0  0  0  0  0  0  0  0  0  0  0
  140.6688  158.8500  134.9497 H   0  0  0  0  0  0  0  0  0  0  0  0
  142.3609  161.0582  134.6787 H   0  0  0  0  0  0  0  0  0  0  0  0
  146.8450  161.3320  133.0930 H   0  0  0  0  0  0  0  0  0  0  0  0
  146.9820  162.4840  134.5260 H   0  0  0  0  0  0  0  0  0  0  0  0
  146.2150  157.4900  131.9110 H   0  0  0  0  0  0  0  0  0  0  0  0
  148.6835  158.0040  133.3277 H   0  0  0  0  0  0  0  0  0  0  0  0
  148.4907  157.2228  131.7073 H   0  0  0  0  0  0  0  0  0  0  0  0
  147.0220  160.4490  132.0880 H   0  0  0  0  0  0  0  0  0  0  0  0
  144.7012  156.3129  133.6864 H   0  0  0  0  0  0  0  0  0  0  0  0
  143.7541  153.9099  135.5442 H   0  0  0  0  0  0  0  0  0  0  0  0
  142.0787  154.5397  136.0360 H   0  0  0  0  0  0  0  0  0  0  0  0
  142.9444  151.9358  135.3995 H   0  0  0  0  0  0  0  0  0  0  0  0
  141.3289  152.6458  136.0034 H   0  0  0  0  0  0  0  0  0  0  0  0
  1  2  1  0
  2  3  1  0
  2  4  1  0
  4  5  2  0
  4  6  1  0
  6  7  1  0
  7  8  1  0
  8  9  1  0
  9 10  1  0
 10 11  2  0
 11 12  1  0
 12 13  2  0
 13 14  1  0
 14 15  2  0
 15 16  1  0
 16 17  1  0
 16 18  2  0
 15 19  1  0
 19 20  1  0
 20 21  2  0
 20 22  1  0
 22 23  1  0
 23 24  1  0
 24 25  2  0
 24 26  1  0
 19 27  1  0
 27 28  2  0
  9 29  1  0
 29 30  1  0
 30  6  1  0
 28 10  1  0
 27 13  1  0
  1 31  1  0
  1 32  1  0
  1 33  1  0
  3 34  1  0
  3 35  1  0
  3 36  1  0
  6 37  1  0
  7 38  1  0
  7 39  1  0
  8 40  1  0
  8 41  1  0
 11 42  1  0
 12 43  1  0
 14 44  1  0
 17 45  1  0
 17 46  1  0
 22 47  1  0
 23 48  1  0
 23 49  1  0
 26 50  1  0
 28 51  1  0
 29 52  1  0
 29 53  1  0
 30 54  1  0
 30 55  1  0
M  END
>  <smiles>  (11) 
CN(C)C(=O)C1CCN(c2ccc3cc(C(N)=O)n(C(=O)NCC(=O)O)c3c2)CC1

>  <score_type>  (11) 
oracle

>  <origin>  (11) 
adg

>  <m_score__min__energy>  (11) 
-8.75

>  <m_primary>  (11) 
energy

$$$$
11:0
     RDKit          3D

 45 46  0  0  0  0  0  0  0  0999 V2000
  143.0380  152.2050  133.0180 C   0  0  0  0  0  0  0  0  0  0  0  0
  143.3040  153.6180  132.8010 N   0  0  0  0  0  0  0  0  0  0  0  0
  142.3390  154.5520  133.3560 C   0  0  0  0  0  0  0  0  0  0  0  0
  140.9370  153.9840  133.3340 C   0  0  0  0  0  0  0  0  0  0  0  0
  140.0130  154.8510  132.8340 F   0  0  0  0  0  0  0  0  0  0  0  0
  144.4390  154.0920  132.0880 C   0  0  0  0  0  0  0  0  0  0  0  0
  144.3680  154.5720  130.9230 O   0  0  0  0  0  0  0  0  0  0  0  0
  145.7520  154.0020  132.7730 C   0  0  0  0  0  0  0  0  0  0  0  0
  145.9310  155.2060  133.6470 N   0  0  0  0  0  0  0  0  0  0  0  0
  145.7140  154.9490  135.0020 C   0  0  0  0  0  0  0  0  0  0  0  0
  144.5540  155.2800  135.4550 O   0  0  0  0  0  0  0  0  0  0  0  0
  146.3650  156.3450  132.9660 C   0  0  0  0  0  0  0  0  0  0  0  0
  147.0500  156.0170  131.8970 O   0  0  0  0  0  0  0  0  0  0  0  0
  146.2390  157.7120  133.1800 N   0  0  0  0  0  0  0  0  0  0  0  0
  147.0540  158.7550  132.9930 C   0  0  0  0  0  0  0  0  0  0  0  0
  148.5180  158.7720  132.8280 C   0  0  0  0  0  0  0  0  0  0  0  0
  149.1880  157.5620  132.4050 N   0  0  0  0  0  0  0  0  0  0  0  0
  149.2430  159.7500  133.0230 O   0  0  0  0  0  0  0  0  0  0  0  0
  146.3860  159.9680  133.1530 C   0  0  0  0  0  0  0  0  0  0  0  0
  145.1000  159.6470  133.4590 C   0  0  0  0  0  0  0  0  0  0  0  0
  144.0310  160.4880  133.7170 C   0  0  0  0  0  0  0  0  0  0  0  0
  142.7940  159.9630  134.0110 C   0  0  0  0  0  0  0  0  0  0  0  0
  142.6790  158.5940  134.0340 C   0  0  0  0  0  0  0  0  0  0  0  0
  141.3410  158.0290  134.3510 C   0  0  0  0  0  0  0  0  0  0  0  0
  140.4990  159.0030  134.8940 F   0  0  0  0  0  0  0  0  0  0  0  0
  140.7760  157.6190  133.1510 F   0  0  0  0  0  0  0  0  0  0  0  0
  141.4170  156.9030  135.1430 F   0  0  0  0  0  0  0  0  0  0  0  0
  143.7690  157.7510  133.7720 C   0  0  0  0  0  0  0  0  0  0  0  0
  145.0220  158.2830  133.4750 C   0  0  0  0  0  0  0  0  0  0  0  0
  142.9996  152.0008  134.0982 H   0  0  0  0  0  0  0  0  0  0  0  0
  142.0740  151.9388  132.5600 H   0  0  0  0  0  0  0  0  0  0  0  0
  143.8392  151.6065  132.5600 H   0  0  0  0  0  0  0  0  0  0  0  0
  142.6169  154.7761  134.3964 H   0  0  0  0  0  0  0  0  0  0  0  0
  142.3502  155.4639  132.7409 H   0  0  0  0  0  0  0  0  0  0  0  0
  140.9374  153.0768  132.7119 H   0  0  0  0  0  0  0  0  0  0  0  0
  140.6548  153.7715  134.3757 H   0  0  0  0  0  0  0  0  0  0  0  0
  145.7847  153.0912  133.3890 H   0  0  0  0  0  0  0  0  0  0  0  0
  146.5585  153.9624  132.0260 H   0  0  0  0  0  0  0  0  0  0  0  0
  146.4839  154.4932  135.6419 H   0  0  0  0  0  0  0  0  0  0  0  0
  148.8780  157.0570  131.5270 H   0  0  0  0  0  0  0  0  0  0  0  0
  149.9800  157.1990  132.9800 H   0  0  0  0  0  0  0  0  0  0  0  0
  146.8114  160.9774  133.0525 H   0  0  0  0  0  0  0  0  0  0  0  0
  144.1711  161.5786  133.6868 H   0  0  0  0  0  0  0  0  0  0  0  0
  141.9315  160.6131  134.2193 H   0  0  0  0  0  0  0  0  0  0  0  0
  143.6333  156.6598  133.8013 H   0  0  0  0  0  0  0  0  0  0  0  0
  1  2  1  0
  2  3  1  0
  3  4  1  0
  4  5  1  0
  2  6  1  0
  6  7  2  0
  6  8  1  0
  8  9  1  0
  9 10  1  0
 10 11  2  0
  9 12  1  0
 12 13  2  0
 12 14  1  0
 14 15  1  0
 15 16  1  0
 16 17  1  0
 16 18  2  0
 15 19  2  0
 19 20  1  0
 20 21  2  0
 21 22  1  0
 22 23  2  0
 23 24  1  0
 24 25  1  0
 24 26  1  0
 24 27  1  0
 23 28  1  0
 28 29  2  0
 29 14  1  0
 29 20  1  0
  1 30  1  0
  1 31  1  0
  1 32  1  0
  3 33  1  0
  3 34  1  0
  4 35  1  0
  4 36  1  0
  8 37  1  0
  8 38  1  0
 10 39  1  0
 17 40  1  0
 17 41  1  0
 19 42  1  0
 21 43  1  0
 22 44  1  0
 28 45  1  0
M  END
>  <smiles>  (12) 
CN(CCF)C(=O)CN(C=O)C(=O)n1c(C(N)=O)cc2ccc(C(F)(F)F)cc21

>  <score_type>  (12) 
oracle

>  <origin>  (12) 
adg

>  <m_score__min__energy>  (12) 
-6.3499999999999996

>  <m_primary>  (12) 
energy

$$$$
12:0
     RDKit          3D

 40 41  0  0  0  0  0  0  0  0999 V2000
  141.3550  158.9390  136.1660 C   0  0  0  0  0  0  0  0  0  0  0  0
  141.6790  158.6990  134.7610 N   0  0  0  0  0  0  0  0  0  0  0  0
  140.7280  158.0430  133.9140 C   0  0  0  0  0  0  0  0  0  0  0  0
  142.9590  159.1420  134.2990 C   0  0  0  0  0  0  0  0  0  0  0  0
  143.1390  160.4850  134.0440 C   0  0  0  0  0  0  0  0  0  0  0  0
  144.3700  160.9100  133.6000 C   0  0  0  0  0  0  0  0  0  0  0  0
  145.3980  160.0120  133.4150 C   0  0  0  0  0  0  0  0  0  0  0  0
  146.6840  160.1630  133.0040 C   0  0  0  0  0  0  0  0  0  0  0  0
  147.3340  158.9210  132.9920 C   0  0  0  0  0  0  0  0  0  0  0  0
  148.7130  158.7810  132.5920 C   0  0  0  0  0  0  0  0  0  0  0  0
  149.2500  157.4630  132.3310 N   0  0  0  0  0  0  0  0  0  0  0  0
  149.5400  159.7100  132.4370 O   0  0  0  0  0  0  0  0  0  0  0  0
  146.4190  158.0320  133.4000 N   0  0  0  0  0  0  0  0  0  0  0  0
  146.6220  156.6470  133.5640 C   0  0  0  0  0  0  0  0  0  0  0  0
  146.1530  155.9650  134.5290 O   0  0  0  0  0  0  0  0  0  0  0  0
  147.3780  155.8690  132.6640 O   0  0  0  0  0  0  0  0  0  0  0  0
  148.1360  154.8480  133.3180 C   0  0  0  0  0  0  0  0  0  0  0  0
  148.2040  153.5490  132.6160 C   0  0  0  0  0  0  0  0  0  0  0  0
  149.5730  153.0970  132.2300 C   0  0  0  0  0  0  0  0  0  0  0  0
  149.7740  151.3610  132.2810 Cl  0  0  0  0  0  0  0  0  0  0  0  0
  145.2500  158.6450  133.6640 C   0  0  0  0  0  0  0  0  0  0  0  0
  143.9990  158.2650  134.1080 C   0  0  0  0  0  0  0  0  0  0  0  0
  142.0748  158.4059  136.8045 H   0  0  0  0  0  0  0  0  0  0  0  0
  141.4078  160.0176  136.3754 H   0  0  0  0  0  0  0  0  0  0  0  0
  140.3386  158.5741  136.3754 H   0  0  0  0  0  0  0  0  0  0  0  0
  139.9798  157.5269  134.5336 H   0  0  0  0  0  0  0  0  0  0  0  0
  140.2270  158.7885  133.2790 H   0  0  0  0  0  0  0  0  0  0  0  0
  141.2469  157.3099  133.2790 H   0  0  0  0  0  0  0  0  0  0  0  0
  142.3169  161.2006  134.1922 H   0  0  0  0  0  0  0  0  0  0  0  0
  144.5348  161.9773  133.3908 H   0  0  0  0  0  0  0  0  0  0  0  0
  147.1475  161.1199  132.7219 H   0  0  0  0  0  0  0  0  0  0  0  0
  148.9210  156.8940  131.5130 H   0  0  0  0  0  0  0  0  0  0  0  0
  149.9820  157.1100  132.9990 H   0  0  0  0  0  0  0  0  0  0  0  0
  149.1642  155.2185  133.4430 H   0  0  0  0  0  0  0  0  0  0  0  0
  147.6143  154.6489  134.2657 H   0  0  0  0  0  0  0  0  0  0  0  0
  147.7683  152.7842  133.2758 H   0  0  0  0  0  0  0  0  0  0  0  0
  147.6549  153.6868  131.6729 H   0  0  0  0  0  0  0  0  0  0  0  0
  149.7775  153.4413  131.2055 H   0  0  0  0  0  0  0  0  0  0  0  0
  150.2737  153.5257  132.9616 H   0  0  0  0  0  0  0  0  0  0  0  0
  143.8253  157.1998  134.3208 H   0  0  0  0  0  0  0  0  0  0  0  0
  1  2  1  0
  2  3  1  0
  2  4  1  0
  4  5  2  0
  5  6  1  0
  6  7  2  0
  7  8  1  0
  8  9  2  0
  9 10  1  0
 10 11  1  0
 10 12  2  0
  9 13  1  0
 13 14  1  0
 14 15  2  0
 14 16  1  0
 16 17  1  0
 17 18  1  0
 18 19  1  0
 19 20  1  0
 13 21  1  0
 21 22  2  0
 22  4  1  0
 21  7  1  0
  1 23  1  0
  1 24  1  0
  1 25  1  0
  3 26  1  0
  3 27  1  0
  3 28  1  0
  5 29  1  0
  6 30  1  0
  8 31  1  0
 11 32  1  0
 11 33  1  0
 17 34  1  0
 17 35  1  0
 18 36  1  0
 18 37  1  0
 19 38  1  0
 19 39  1  0
 22 40  1  0
M  END
>  <smiles>  (13) 
CN(C)c1ccc2cc(C(N)=O)n(C(=O)OCCCCl)c2c1

>  <score_type>  (13) 
oracle

>  <origin>  (13) 
adg

>  <m_score__min__energy>  (13) 
-6.8799999999999999

>  <m_primary>  (13) 
energy

$$$$
13:0
     RDKit          3D

 38 39  0  0  0  0  0  0  0  0999 V2000
  144.1120  160.3090  133.9520 C   0  0  0  0  0  0  0  0  0  0  0  0
  145.4200  160.6230  133.3670 N   0  0  0  0  0  0  0  0  0  0  0  0
  146.3600  159.5850  133.1520 C   0  0  0  0  0  0  0  0  0  0  0  0
  147.6150  159.9090  132.6900 C   0  0  0  0  0  0  0  0  0  0  0  0
  148.5080  158.9100  132.4880 C   0  0  0  0  0  0  0  0  0  0  0  0
  148.1390  157.6020  132.7460 C   0  0  0  0  0  0  0  0  0  0  0  0
  148.8760  156.4660  132.6100 C   0  0  0  0  0  0  0  0  0  0  0  0
  148.0410  155.4310  133.0010 C   0  0  0  0  0  0  0  0  0  0  0  0
  148.5700  154.0620  133.0780 C   0  0  0  0  0  0  0  0  0  0  0  0
  148.1240  153.1590  134.1000 N   0  0  0  0  0  0  0  0  0  0  0  0
  149.4220  153.5990  132.2830 O   0  0  0  0  0  0  0  0  0  0  0  0
  146.8320  155.8580  133.3640 N   0  0  0  0  0  0  0  0  0  0  0  0
  145.6100  155.2380  133.6220 C   0  0  0  0  0  0  0  0  0  0  0  0
  145.1130  154.6070  132.5620 O   0  0  0  0  0  0  0  0  0  0  0  0
  144.7690  155.0960  134.7080 N   0  0  0  0  0  0  0  0  0  0  0  0
  143.3810  155.6230  134.4670 C   0  0  0  0  0  0  0  0  0  0  0  0
  144.8850  154.4070  135.9580 C   0  0  0  0  0  0  0  0  0  0  0  0
  146.3720  154.1630  136.2490 C   0  0  0  0  0  0  0  0  0  0  0  0
  146.7400  153.0610  136.7320 O   0  0  0  0  0  0  0  0  0  0  0  0
  147.2730  155.1870  135.9620 O   0  0  0  0  0  0  0  0  0  0  0  0
  146.9030  157.2320  133.2060 C   0  0  0  0  0  0  0  0  0  0  0  0
  145.9980  158.2560  133.4110 C   0  0  0  0  0  0  0  0  0  0  0  0
  144.1872  160.3271  135.0493 H   0  0  0  0  0  0  0  0  0  0  0  0
  143.3743  161.0556  133.6227 H   0  0  0  0  0  0  0  0  0  0  0  0
  143.7936  159.3089  133.6227 H   0  0  0  0  0  0  0  0  0  0  0  0
  145.6380  161.6100  133.1190 H   0  0  0  0  0  0  0  0  0  0  0  0
  147.8873  160.9557  132.4891 H   0  0  0  0  0  0  0  0  0  0  0  0
  149.5198  159.1377  132.1213 H   0  0  0  0  0  0  0  0  0  0  0  0
  149.9166  156.3859  132.2625 H   0  0  0  0  0  0  0  0  0  0  0  0
  147.7920  152.2250  133.7330 H   0  0  0  0  0  0  0  0  0  0  0  0
  148.1290  153.4060  135.1140 H   0  0  0  0  0  0  0  0  0  0  0  0
  142.8873  155.8105  135.4319 H   0  0  0  0  0  0  0  0  0  0  0  0
  143.4391  156.5616  133.8964 H   0  0  0  0  0  0  0  0  0  0  0  0
  142.8015  154.8823  133.8964 H   0  0  0  0  0  0  0  0  0  0  0  0
  144.4464  155.0188  136.7600 H   0  0  0  0  0  0  0  0  0  0  0  0
  144.3504  153.4470  135.9079 H   0  0  0  0  0  0  0  0  0  0  0  0
  146.9350  156.0850  135.5920 H   0  0  0  0  0  0  0  0  0  0  0  0
  144.9873  158.0267  133.7797 H   0  0  0  0  0  0  0  0  0  0  0  0
  1  2  1  0
  2  3  1  0
  3  4  2  0
  4  5  1  0
  5  6  2  0
  6  7  1  0
  7  8  2  0
  8  9  1  0
  9 10  1  0
  9 11  2  0
  8 12  1  0
 12 13  1  0
 13 14  2  0
 13 15  1  0
 15 16  1  0
 15 17  1  0
 17 18  1  0
 18 19  2  0
 18 20  1  0
 12 21  1  0
 21 22  2  0
 22  3  1  0
 21  6  1  0
  1 23  1  0
  1 24  1  0
  1 25  1  0
  2 26  1  0
  4 27  1  0
  5 28  1  0
  7 29  1  0
 10 30  1  0
 10 31  1  0
 16 32  1  0
 16 33  1  0
 16 34  1  0
 17 35  1  0
 17 36  1  0
 20 37  1  0
 22 38  1  0
M  END
>  <smiles>  (14) 
CNc1ccc2cc(C(N)=O)n(C(=O)N(C)CC(=O)O)c2c1

>  <score_type>  (14) 
oracle

>  <origin>  (14) 
adg

>  <m_score__min__energy>  (14) 
-6.7599999999999998

>  <m_primary>  (14) 
energy

$$$$
14:0
     RDKit          3D

 49 50  0  0  1  0  0  0  0  0999 V2000
  143.5690  154.6860  135.7150 C   0  0  0  0  0  0  0  0  0  0  0  0
  142.8980  155.8340  135.0340 N   0  0  0  0  0  0  0  0  0  0  0  0
  141.9650  156.5180  135.8160 C   0  0  0  0  0  0  0  0  0  0  0  0
  142.1090  157.4490  136.6260 O   0  0  0  0  0  0  0  0  0  0  0  0
  140.5920  156.1160  135.7010 O   0  0  0  0  0  0  0  0  0  0  0  0
  139.8930  156.5020  134.5050 C   0  0  0  0  0  0  0  0  0  0  0  0
  139.1650  157.7840  134.6840 C   0  0  0  0  0  0  0  0  0  0  0  0
  138.3910  158.2770  133.8250 O   0  0  0  0  0  0  0  0  0  0  0  0
  139.3640  158.4610  135.8770 O   0  0  0  0  0  0  0  0  0  0  0  0
  143.2960  156.1290  133.6770 C   0  0  0  0  0  0  0  0  0  0  0  0
  143.6100  155.0220  132.9640 C   0  0  0  0  0  0  0  0  0  0  0  0
  144.0290  155.0880  131.6480 O   0  0  0  0  0  0  0  0  0  0  0  0
  143.2380  157.4330  133.0900 C   0  0  0  0  0  0  0  0  0  0  0  0
  142.4900  157.5040  132.0270 O   0  0  0  0  0  0  0  0  0  0  0  0
  143.8210  158.6620  133.4260 N   0  0  0  0  0  0  0  0  0  0  0  0
  143.3700  159.8750  133.6940 C   0  0  0  0  0  0  0  0  0  0  0  0
  142.0110  160.2720  134.1540 C   0  0  0  0  0  0  0  0  0  0  0  0
  141.3720  159.6070  135.2320 N   0  0  0  0  0  0  0  0  0  0  0  0
  141.3730  161.2080  133.6120 O   0  0  0  0  0  0  0  0  0  0  0  0
  144.3790  160.8300  133.7170 C   0  0  0  0  0  0  0  0  0  0  0  0
  145.5270  160.1460  133.4500 C   0  0  0  0  0  0  0  0  0  0  0  0
  146.8200  160.6190  133.3560 C   0  0  0  0  0  0  0  0  0  0  0  0
  147.8400  159.7380  133.0720 C   0  0  0  0  0  0  0  0  0  0  0  0
  147.5320  158.4080  132.8910 C   0  0  0  0  0  0  0  0  0  0  0  0
  148.5810  157.4680  132.5930 N   0  0  0  0  0  0  0  0  0  0  0  0
  149.7740  157.9250  131.8750 C   0  0  0  0  0  0  0  0  0  0  0  0
  148.4390  156.0890  133.0050 C   0  0  0  0  0  0  0  0  0  0  0  0
  146.2210  157.9580  132.9910 C   0  0  0  0  0  0  0  0  0  0  0  0
  145.1800  158.8380  133.2770 C   0  0  0  0  0  0  0  0  0  0  0  0
  143.4951  154.8124  136.8052 H   0  0  0  0  0  0  0  0  0  0  0  0
  143.0776  153.7470  135.4206 H   0  0  0  0  0  0  0  0  0  0  0  0
  144.6284  154.6534  135.4206 H   0  0  0  0  0  0  0  0  0  0  0  0
  140.6206  156.6163  133.6880 H   0  0  0  0  0  0  0  0  0  0  0  0
  139.1566  155.7193  134.2704 H   0  0  0  0  0  0  0  0  0  0  0  0
  140.0420  158.1360  136.5790 H   0  0  0  0  0  0  0  0  0  0  0  0
  143.5291  154.0373  133.4476 H   0  0  0  0  0  0  0  0  0  0  0  0
  143.6150  155.7470  131.0160 H   0  0  0  0  0  0  0  0  0  0  0  0
  141.5480  158.5690  135.3800 H   0  0  0  0  0  0  0  0  0  0  0  0
  140.7340  160.1370  135.8760 H   0  0  0  0  0  0  0  0  0  0  0  0
  144.2736  161.9079  133.9096 H   0  0  0  0  0  0  0  0  0  0  0  0
  147.0337  161.6876  133.5062 H   0  0  0  0  0  0  0  0  0  0  0  0
  148.8792  160.0895  132.9914 H   0  0  0  0  0  0  0  0  0  0  0  0
  150.5470  158.2211  132.5994 H   0  0  0  0  0  0  0  0  0  0  0  0
  150.1565  157.1098  131.2433 H   0  0  0  0  0  0  0  0  0  0  0  0
  149.5140  158.7872  131.2433 H   0  0  0  0  0  0  0  0  0  0  0  0
  148.4333  156.0333  134.1036 H   0  0  0  0  0  0  0  0  0  0  0  0
  147.4944  155.6844  132.6124 H   0  0  0  0  0  0  0  0  0  0  0  0
  149.2813  155.5004  132.6124 H   0  0  0  0  0  0  0  0  0  0  0  0
  146.0021  156.8903  132.8420 H   0  0  0  0  0  0  0  0  0  0  0  0
  1  2  1  0
  2  3  1  0
  3  4  2  0
  3  5  1  0
  5  6  1  0
  6  7  1  0
  7  8  2  0
  7  9  1  0
  2 10  1  0
 10 11  2  0
 11 12  1  0
 10 13  1  0
 13 14  2  0
 13 15  1  0
 15 16  1  0
 16 17  1  0
 17 18  1  0
 17 19  2  0
 16 20  2  0
 20 21  1  0
 21 22  2  0
 22 23  1  0
 23 24  2  0
 24 25  1  0
 25 26  1  0
 25 27  1  0
 24 28  1  0
 28 29  2  0
 29 15  1  0
 29 21  1  0
  1 30  1  0
  1 31  1  0
  1 32  1  0
  6 33  1  0
  6 34  1  0
  9 35  1  0
 11 36  1  0
 12 37  1  0
 18 38  1  0
 18 39  1  0
 20 40  1  0
 22 41  1  0
 23 42  1  0
 26 43  1  0
 26 44  1  0
 26 45  1  0
 27 46  1  0
 27 47  1  0
 27 48  1  0
 28 49  1  0
M  END
>  <smiles>  (15) 
CN(C(=O)OCC(=O)O)C(=CO)C(=O)n1c(C(N)=O)cc2ccc(N(C)C)cc21

>  <score_type>  (15) 
oracle

>  <origin>  (15) 
adg

>  <m_score__min__energy>  (15) 
-7.4299999999999997

>  <m_primary>  (15) 
energy

$$$$
15:0
     RDKit          3D

 45 46  0  0  0  0  0  0  0  0999 V2000
  138.4890  160.0960  131.0550 C   0  0  0  0  0  0  0  0  0  0  0  0
  139.0480  158.6950  131.2380 C   0  0  0  0  0  0  0  0  0  0  0  0
  140.2650  158.8370  131.9820 O   0  0  0  0  0  0  0  0  0  0  0  0
  140.1130  158.6960  133.3690 C   0  0  0  0  0  0  0  0  0  0  0  0
  140.8420  159.3640  134.1780 O   0  0  0  0  0  0  0  0  0  0  0  0
  139.1230  157.7890  133.9750 C   0  0  0  0  0  0  0  0  0  0  0  0
  139.6270  156.5100  134.2840 O   0  0  0  0  0  0  0  0  0  0  0  0
  140.0160  155.5860  133.3480 C   0  0  0  0  0  0  0  0  0  0  0  0
  139.1360  155.3070  132.4640 O   0  0  0  0  0  0  0  0  0  0  0  0
  141.2780  154.9430  133.2910 N   0  0  0  0  0  0  0  0  0  0  0  0
  142.4830  155.5250  133.3820 C   0  0  0  0  0  0  0  0  0  0  0  0
  142.8700  156.9050  133.5550 C   0  0  0  0  0  0  0  0  0  0  0  0
  142.6650  157.8400  132.4750 N   0  0  0  0  0  0  0  0  0  0  0  0
  143.3880  157.4040  134.5800 O   0  0  0  0  0  0  0  0  0  0  0  0
  143.4230  154.4970  133.2730 C   0  0  0  0  0  0  0  0  0  0  0  0
  142.7770  153.2960  133.1160 C   0  0  0  0  0  0  0  0  0  0  0  0
  143.2760  152.0210  132.9710 C   0  0  0  0  0  0  0  0  0  0  0  0
  142.3450  150.9990  132.8310 C   0  0  0  0  0  0  0  0  0  0  0  0
  140.9870  151.2170  132.8330 C   0  0  0  0  0  0  0  0  0  0  0  0
  140.0220  150.1940  132.6660 N   0  0  0  0  0  0  0  0  0  0  0  0
  140.2660  148.9020  132.0810 C   0  0  0  0  0  0  0  0  0  0  0  0
  139.2460  148.4850  131.0500 C   0  0  0  0  0  0  0  0  0  0  0  0
  137.9740  149.1330  131.1450 N   0  0  0  0  0  0  0  0  0  0  0  0
  140.5640  152.5320  132.9860 C   0  0  0  0  0  0  0  0  0  0  0  0
  141.4330  153.5920  133.1300 C   0  0  0  0  0  0  0  0  0  0  0  0
  138.3078  160.5501  132.0404 H   0  0  0  0  0  0  0  0  0  0  0  0
  139.2114  160.7089  130.4961 H   0  0  0  0  0  0  0  0  0  0  0  0
  137.5431  160.0432  130.4961 H   0  0  0  0  0  0  0  0  0  0  0  0
  138.3334  158.0702  131.7938 H   0  0  0  0  0  0  0  0  0  0  0  0
  139.2289  158.2088  130.2680 H   0  0  0  0  0  0  0  0  0  0  0  0
  138.7562  158.2494  134.9043 H   0  0  0  0  0  0  0  0  0  0  0  0
  138.3274  157.6444  133.2293 H   0  0  0  0  0  0  0  0  0  0  0  0
  142.8410  157.5350  131.4730 H   0  0  0  0  0  0  0  0  0  0  0  0
  142.3420  158.8130  132.6890 H   0  0  0  0  0  0  0  0  0  0  0  0
  144.5144  154.6298  133.3077 H   0  0  0  0  0  0  0  0  0  0  0  0
  144.3577  151.8213  132.9662 H   0  0  0  0  0  0  0  0  0  0  0  0
  142.7109  149.9683  132.7132 H   0  0  0  0  0  0  0  0  0  0  0  0
  139.0340  150.3740  132.9920 H   0  0  0  0  0  0  0  0  0  0  0  0
  141.2545  148.9232  131.5989 H   0  0  0  0  0  0  0  0  0  0  0  0
  140.2052  148.1690  132.8990 H   0  0  0  0  0  0  0  0  0  0  0  0
  139.6625  148.7001  130.0549 H   0  0  0  0  0  0  0  0  0  0  0  0
  139.0549  147.4166  131.2291 H   0  0  0  0  0  0  0  0  0  0  0  0
  137.2320  148.5040  130.7700 H   0  0  0  0  0  0  0  0  0  0  0  0
  137.7100  149.4360  132.0870 H   0  0  0  0  0  0  0  0  0  0  0  0
  139.4832  152.7367  132.9925 H   0  0  0  0  0  0  0  0  0  0  0  0
  1  2  1  0
  2  3  1  0
  3  4  1  0
  4  5  2  0
  4  6  1  0
  6  7  1  0
  7  8  1  0
  8  9  2  0
  8 10  1  0
 10 11  1  0
 11 12  1  0
 12 13  1  0
 12 14  2  0
 11 15  2  0
 15 16  1  0
 16 17  2  0
 17 18  1  0
 18 19  2  0
 19 20  1  0
 20 21  1  0
 21 22  1  0
 22 23  1  0
 19 24  1  0
 24 25  2  0
 25 10  1  0
 25 16  1  0
  1 26  1  0
  1 27  1  0
  1 28  1  0
  2 29  1  0
  2 30  1  0
  6 31  1  0
  6 32  1  0
 13 33  1  0
 13 34  1  0
 15 35  1  0
 17 36  1  0
 18 37  1  0
 20 38  1  0
 21 39  1  0
 21 40  1  0
 22 41  1  0
 22 42  1  0
 23 43  1  0
 23 44  1  0
 24 45  1  0
M  END
>  <smiles>  (16) 
CCOC(=O)COC(=O)n1c(C(N)=O)cc2ccc(NCCN)cc21

>  <score_type>  (16) 
oracle

>  <origin>  (16) 
adg

>  <m_score__min__energy>  (16) 
-6.9699999999999998

>  <m_primary>  (16) 
energy

$$$$
16:0
     RDKit          3D

 50 53  0  0  0  0  0  0  0  0999 V2000
  147.8550  156.4980  132.5910 C   0  0  0  0  0  0  0  0  0  0  0  0
  148.1850  157.9620  132.7840 C   0  0  0  0  0  0  0  0  0  0  0  0
  149.4130  158.2700  131.9820 C   0  0  0  0  0  0  0  0  0  0  0  0
  148.4840  158.1680  134.2560 C   0  0  0  0  0  0  0  0  0  0  0  0
  147.1180  158.7960  132.3570 O   0  0  0  0  0  0  0  0  0  0  0  0
  146.6030  159.8190  133.1040 C   0  0  0  0  0  0  0  0  0  0  0  0
  147.4270  160.7690  133.3650 O   0  0  0  0  0  0  0  0  0  0  0  0
  145.2950  159.9280  133.6010 N   0  0  0  0  0  0  0  0  0  0  0  0
  144.6700  161.0400  134.0220 C   0  0  0  0  0  0  0  0  0  0  0  0
  145.1260  162.4130  134.0930 C   0  0  0  0  0  0  0  0  0  0  0  0
  146.5360  162.6910  134.2610 N   0  0  0  0  0  0  0  0  0  0  0  0
  144.4020  163.4310  134.0220 O   0  0  0  0  0  0  0  0  0  0  0  0
  143.3810  160.6720  134.4300 C   0  0  0  0  0  0  0  0  0  0  0  0
  143.2320  159.3180  134.2510 C   0  0  0  0  0  0  0  0  0  0  0  0
  142.1680  158.4780  134.4950 C   0  0  0  0  0  0  0  0  0  0  0  0
  142.2810  157.1310  134.2210 C   0  0  0  0  0  0  0  0  0  0  0  0
  143.4470  156.6600  133.7130 C   0  0  0  0  0  0  0  0  0  0  0  0
  143.5640  155.2280  133.4230 C   0  0  0  0  0  0  0  0  0  0  0  0
  144.7970  154.6290  133.1840 C   0  0  0  0  0  0  0  0  0  0  0  0
  144.8920  153.2610  132.9100 C   0  0  0  0  0  0  0  0  0  0  0  0
  143.7620  152.4750  132.8700 C   0  0  0  0  0  0  0  0  0  0  0  0
  143.8080  151.1110  132.6020 C   0  0  0  0  0  0  0  0  0  0  0  0
  142.6780  150.3720  132.5710 N   0  0  0  0  0  0  0  0  0  0  0  0
  141.4770  150.9270  132.7970 C   0  0  0  0  0  0  0  0  0  0  0  0
  141.3660  152.2840  133.0710 C   0  0  0  0  0  0  0  0  0  0  0  0
  142.5250  153.0580  133.1060 C   0  0  0  0  0  0  0  0  0  0  0  0
  142.4530  154.4160  133.3760 C   0  0  0  0  0  0  0  0  0  0  0  0
  144.5210  157.5210  133.4680 C   0  0  0  0  0  0  0  0  0  0  0  0
  144.4310  158.8780  133.7360 C   0  0  0  0  0  0  0  0  0  0  0  0
  147.7459  156.0142  133.5729 H   0  0  0  0  0  0  0  0  0  0  0  0
  146.9134  156.4052  132.0299 H   0  0  0  0  0  0  0  0  0  0  0  0
  148.6657  156.0103  132.0299 H   0  0  0  0  0  0  0  0  0  0  0  0
  150.2517  158.4804  132.6619 H   0  0  0  0  0  0  0  0  0  0  0  0
  149.6628  157.4067  131.3477 H   0  0  0  0  0  0  0  0  0  0  0  0
  149.2258  159.1490  131.3477 H   0  0  0  0  0  0  0  0  0  0  0  0
  147.7271  157.6466  134.8604 H   0  0  0  0  0  0  0  0  0  0  0  0
  149.4804  157.7638  134.4878 H   0  0  0  0  0  0  0  0  0  0  0  0
  148.4613  159.2431  134.4878 H   0  0  0  0  0  0  0  0  0  0  0  0
  146.9810  162.6460  135.2110 H   0  0  0  0  0  0  0  0  0  0  0  0
  147.0500  162.9310  133.3900 H   0  0  0  0  0  0  0  0  0  0  0  0
  142.6152  161.3542  134.8277 H   0  0  0  0  0  0  0  0  0  0  0  0
  141.2309  158.8803  134.9072 H   0  0  0  0  0  0  0  0  0  0  0  0
  141.4388  156.4495  134.4115 H   0  0  0  0  0  0  0  0  0  0  0  0
  145.7108  155.2408  133.2110 H   0  0  0  0  0  0  0  0  0  0  0  0
  145.8776  152.8090  132.7249 H   0  0  0  0  0  0  0  0  0  0  0  0
  144.7778  150.6276  132.4128 H   0  0  0  0  0  0  0  0  0  0  0  0
  140.5727  150.3016  132.7649 H   0  0  0  0  0  0  0  0  0  0  0  0
  140.3821  152.7395  133.2569 H   0  0  0  0  0  0  0  0  0  0  0  0
  141.4655  154.8641  133.5607 H   0  0  0  0  0  0  0  0  0  0  0  0
  145.4554  157.1136  133.0546 H   0  0  0  0  0  0  0  0  0  0  0  0
  1  2  1  0
  2  3  1  0
  2  4  1  0
  2  5  1  0
  5  6  1  0
  6  7  2  0
  6  8  1  0
  8  9  1  0
  9 10  1  0
 10 11  1  0
 10 12  2  0
  9 13  2  0
 13 14  1  0
 14 15  2  0
 15 16  1  0
 16 17  2  0
 17 18  1  0
 18 19  2  0
 19 20  1  0
 20 21  2  0
 21 22  1  0
 22 23  2  0
 23 24  1  0
 24 25  2  0
 25 26  1  0
 26 27  2  0
 17 28  1  0
 28 29  2  0
 29  8  1  0
 29 14  1  0
 27 18  1  0
 26 21  1  0
  1 30  1  0
  1 31  1  0
  1 32  1  0
  3 33  1  0
  3 34  1  0
  3 35  1  0
  4 36  1  0
  4 37  1  0
  4 38  1  0
 11 39  1  0
 11 40  1  0
 13 41  1  0
 15 42  1  0
 16 43  1  0
 19 44  1  0
 20 45  1  0
 22 46  1  0
 24 47  1  0
 25 48  1  0
 27 49  1  0
 28 50  1  0
M  END
>  <smiles>  (17) 
CC(C)(C)OC(=O)n1c(C(N)=O)cc2ccc(-c3ccc4cnccc4c3)cc21

>  <score_type>  (17) 
oracle

>  <origin>  (17) 
adg

>  <m_score__min__energy>  (17) 
-9.6199999999999992

>  <m_primary>  (17) 
energy

$$$$
17:0
     RDKit          3D

 43 45  0  0  0  0  0  0  0  0999 V2000
  142.9540  157.1130  132.3960 N   0  0  0  0  0  0  0  0  0  0  0  0
  143.8890  156.8100  133.4480 C   0  0  0  0  0  0  0  0  0  0  0  0
  143.7280  157.4710  134.4920 O   0  0  0  0  0  0  0  0  0  0  0  0
  144.8950  155.8020  133.2030 C   0  0  0  0  0  0  0  0  0  0  0  0
  144.4660  154.4880  132.9040 C   0  0  0  0  0  0  0  0  0  0  0  0
  145.5770  153.7210  132.7730 C   0  0  0  0  0  0  0  0  0  0  0  0
  145.6870  152.3790  132.4810 C   0  0  0  0  0  0  0  0  0  0  0  0
  146.9160  151.7810  132.3820 C   0  0  0  0  0  0  0  0  0  0  0  0
  148.0200  152.5710  132.5840 C   0  0  0  0  0  0  0  0  0  0  0  0
  149.3520  151.9350  132.4790 C   0  0  0  0  0  0  0  0  0  0  0  0
  149.5460  150.9660  133.4450 F   0  0  0  0  0  0  0  0  0  0  0  0
  150.3590  152.8540  132.5990 F   0  0  0  0  0  0  0  0  0  0  0  0
  149.4450  151.3530  131.2210 F   0  0  0  0  0  0  0  0  0  0  0  0
  147.8970  153.9320  132.8810 C   0  0  0  0  0  0  0  0  0  0  0  0
  146.6550  154.5450  132.9830 C   0  0  0  0  0  0  0  0  0  0  0  0
  146.2390  155.8320  133.2460 N   0  0  0  0  0  0  0  0  0  0  0  0
  147.1560  156.8380  133.5340 C   0  0  0  0  0  0  0  0  0  0  0  0
  148.2460  156.3940  134.1420 O   0  0  0  0  0  0  0  0  0  0  0  0
  147.2480  158.2040  133.3440 N   0  0  0  0  0  0  0  0  0  0  0  0
  148.4810  158.8300  133.9360 C   0  0  0  0  0  0  0  0  0  0  0  0
  149.4940  159.0400  132.8300 C   0  0  0  0  0  0  0  0  0  0  0  0
  148.6820  159.2740  131.5650 C   0  0  0  0  0  0  0  0  0  0  0  0
  149.4450  159.9150  130.4900 C   0  0  0  0  0  0  0  0  0  0  0  0
  150.6990  160.0460  130.5720 O   0  0  0  0  0  0  0  0  0  0  0  0
  148.8420  160.4040  129.3470 O   0  0  0  0  0  0  0  0  0  0  0  0
  147.4820  160.1040  131.9440 C   0  0  0  0  0  0  0  0  0  0  0  0
  146.4640  159.1500  132.6130 C   0  0  0  0  0  0  0  0  0  0  0  0
  142.2170  156.3820  132.2290 H   0  0  0  0  0  0  0  0  0  0  0  0
  143.0140  158.0020  131.8410 H   0  0  0  0  0  0  0  0  0  0  0  0
  143.4245  154.1506  132.7975 H   0  0  0  0  0  0  0  0  0  0  0  0
  144.7773  151.7804  132.3255 H   0  0  0  0  0  0  0  0  0  0  0  0
  147.0138  150.7102  132.1498 H   0  0  0  0  0  0  0  0  0  0  0  0
  148.8059  154.5315  133.0376 H   0  0  0  0  0  0  0  0  0  0  0  0
  148.2234  159.7976  134.3913 H   0  0  0  0  0  0  0  0  0  0  0  0
  148.9014  158.1725  134.7112 H   0  0  0  0  0  0  0  0  0  0  0  0
  150.1240  159.9149  133.0484 H   0  0  0  0  0  0  0  0  0  0  0  0
  150.1660  158.1753  132.7262 H   0  0  0  0  0  0  0  0  0  0  0  0
  148.3800  158.2985  131.1561 H   0  0  0  0  0  0  0  0  0  0  0  0
  148.2040  161.2050  129.3610 H   0  0  0  0  0  0  0  0  0  0  0  0
  147.7775  160.8953  132.6487 H   0  0  0  0  0  0  0  0  0  0  0  0
  147.0435  160.5868  131.0582 H   0  0  0  0  0  0  0  0  0  0  0  0
  145.8035  159.7084  133.2927 H   0  0  0  0  0  0  0  0  0  0  0  0
  145.8187  158.6574  131.8708 H   0  0  0  0  0  0  0  0  0  0  0  0
  1  2  1  0
  2  3  2  0
  2  4  1  0
  4  5  2  0
  5  6  1  0
  6  7  2  0
  7  8  1  0
  8  9  2  0
  9 10  1  0
 10 11  1  0
 10 12  1  0
 10 13  1  0
  9 14  1  0
 14 15  2  0
 15 16  1  0
 16 17  1  0
 17 18  2  0
 17 19  1  0
 19 20  1  0
 20 21  1  0
 21 22  1  0
 22 23  1  0
 23 24  2  0
 23 25  1  0
 22 26  1  0
 26 27  1  0
 16  4  1  0
 27 19  1  0
 15  6  1  0
  1 28  1  0
  1 29  1  0
  5 30  1  0
  7 31  1  0
  8 32  1  0
 14 33  1  0
 20 34  1  0
 20 35  1  0
 21 36  1  0
 21 37  1  0
 22 38  1  0
 25 39  1  0
 26 40  1  0
 26 41  1  0
 27 42  1  0
 27 43  1  0
M  END
>  <smiles>  (18) 
NC(=O)c1cc2ccc(C(F)(F)F)cc2n1C(=O)N1CCC(C(=O)O)CC1

>  <score_type>  (18) 
oracle

>  <origin>  (18) 
adg

>  <m_score__min__energy>  (18) 
-8.4000000000000004

>  <m_primary>  (18) 
energy

$$$$
18:0
     RDKit          3D

 34 35  0  0  0  0  0  0  0  0999 V2000
  149.4600  157.2790  132.3730 N   0  0  0  0  0  0  0  0  0  0  0  0
  148.9540  158.6330  132.4910 C   0  0  0  0  0  0  0  0  0  0  0  0
  149.7990  159.5200  132.2260 O   0  0  0  0  0  0  0  0  0  0  0  0
  147.5910  158.8280  132.8820 C   0  0  0  0  0  0  0  0  0  0  0  0
  146.9460  160.0530  132.8380 C   0  0  0  0  0  0  0  0  0  0  0  0
  145.6570  159.9270  133.2700 C   0  0  0  0  0  0  0  0  0  0  0  0
  144.6330  160.8400  133.4080 C   0  0  0  0  0  0  0  0  0  0  0  0
  143.4160  160.4620  133.8670 C   0  0  0  0  0  0  0  0  0  0  0  0
  143.2190  159.1380  134.1940 C   0  0  0  0  0  0  0  0  0  0  0  0
  141.8950  158.6920  134.6990 C   0  0  0  0  0  0  0  0  0  0  0  0
  141.9140  158.7470  136.0720 F   0  0  0  0  0  0  0  0  0  0  0  0
  140.8850  159.4710  134.1590 F   0  0  0  0  0  0  0  0  0  0  0  0
  144.2570  158.2210  134.0500 C   0  0  0  0  0  0  0  0  0  0  0  0
  145.5030  158.5860  133.5860 C   0  0  0  0  0  0  0  0  0  0  0  0
  146.6730  157.9350  133.3480 N   0  0  0  0  0  0  0  0  0  0  0  0
  146.8600  156.5670  133.5630 C   0  0  0  0  0  0  0  0  0  0  0  0
  146.2280  155.7700  132.7780 O   0  0  0  0  0  0  0  0  0  0  0  0
  147.6330  155.9630  134.5090 O   0  0  0  0  0  0  0  0  0  0  0  0
  147.7120  154.5670  134.7400 C   0  0  0  0  0  0  0  0  0  0  0  0
  148.2850  153.7070  133.2540 P   0  0  0  0  0  0  0  0  0  0  0  0
  149.2320  152.6160  133.6320 O   0  0  0  0  0  0  0  0  0  0  0  0
  146.9200  153.0270  132.4930 O   0  0  0  0  0  0  0  0  0  0  0  0
  149.0010  154.8640  132.2430 O   0  0  0  0  0  0  0  0  0  0  0  0
  149.6550  156.8820  131.4120 H   0  0  0  0  0  0  0  0  0  0  0  0
  149.6210  156.7260  133.2480 H   0  0  0  0  0  0  0  0  0  0  0  0
  147.4069  160.9938  132.5026 H   0  0  0  0  0  0  0  0  0  0  0  0
  144.8073  161.8927  133.1409 H   0  0  0  0  0  0  0  0  0  0  0  0
  142.6034  161.1953  133.9762 H   0  0  0  0  0  0  0  0  0  0  0  0
  141.6931  157.6558  134.3899 H   0  0  0  0  0  0  0  0  0  0  0  0
  144.0766  157.1689  134.3157 H   0  0  0  0  0  0  0  0  0  0  0  0
  148.4168  154.3760  135.5627 H   0  0  0  0  0  0  0  0  0  0  0  0
  146.7111  154.1936  135.0022 H   0  0  0  0  0  0  0  0  0  0  0  0
  146.5370  153.7700  131.9280 H   0  0  0  0  0  0  0  0  0  0  0  0
  148.3240  155.5950  132.1280 H   0  0  0  0  0  0  0  0  0  0  0  0
  1  2  1  0
  2  3  2  0
  2  4  1  0
  4  5  2  0
  5  6  1  0
  6  7  2  0
  7  8  1  0
  8  9  2  0
  9 10  1  0
 10 11  1  0
 10 12  1  0
  9 13  1  0
 13 14  2  0
 14 15  1  0
 15 16  1  0
 16 17  2  0
 16 18  1  0
 18 19  1  0
 19 20  1  0
 20 21  2  0
 20 22  1  0
 20 23  1  0
 15  4  1  0
 14  6  1  0
  1 24  1  0
  1 25  1  0
  5 26  1  0
  7 27  1  0
  8 28  1  0
 10 29  1  0
 13 30  1  0
 19 31  1  0
 19 32  1  0
 22 33  1  0
 23 34  1  0
M  END
>  <smiles>  (19) 
NC(=O)c1cc2ccc(C(F)F)cc2n1C(=O)OCP(=O)(O)O

>  <score_type>  (19) 
oracle

>  <origin>  (19) 
adg

>  <m_score__min__energy>  (19) 
-6.5499999999999998

>  <m_primary>  (19) 
energy

$$$$
19:0
     RDKit          3D

 47 48  0  0  0  0  0  0  0  0999 V2000
  141.6200  160.3150  133.6900 C   0  0  0  0  0  0  0  0  0  0  0  0
  142.3820  159.1940  134.2990 N   0  0  0  0  0  0  0  0  0  0  0  0
  142.0430  158.8580  135.6260 C   0  0  0  0  0  0  0  0  0  0  0  0
  140.5890  159.0180  135.9900 C   0  0  0  0  0  0  0  0  0  0  0  0
  139.8430  157.7450  135.8280 C   0  0  0  0  0  0  0  0  0  0  0  0
  139.5170  157.4840  134.3740 C   0  0  0  0  0  0  0  0  0  0  0  0
  138.4540  157.8820  133.8520 O   0  0  0  0  0  0  0  0  0  0  0  0
  140.4040  156.7890  133.5850 O   0  0  0  0  0  0  0  0  0  0  0  0
  143.3210  158.6040  133.4110 C   0  0  0  0  0  0  0  0  0  0  0  0
  142.7700  157.6940  132.6660 O   0  0  0  0  0  0  0  0  0  0  0  0
  144.7160  158.9350  133.3070 C   0  0  0  0  0  0  0  0  0  0  0  0
  144.9590  160.1530  132.9890 O   0  0  0  0  0  0  0  0  0  0  0  0
  145.8340  158.1110  133.4950 N   0  0  0  0  0  0  0  0  0  0  0  0
  147.1420  158.3700  133.5420 C   0  0  0  0  0  0  0  0  0  0  0  0
  147.9050  159.5250  133.0870 C   0  0  0  0  0  0  0  0  0  0  0  0
  147.3930  160.8550  133.3440 N   0  0  0  0  0  0  0  0  0  0  0  0
  148.9950  159.4920  132.4770 O   0  0  0  0  0  0  0  0  0  0  0  0
  147.8470  157.2240  133.9680 C   0  0  0  0  0  0  0  0  0  0  0  0
  146.9190  156.2530  134.1730 C   0  0  0  0  0  0  0  0  0  0  0  0
  147.0900  154.9490  134.5910 C   0  0  0  0  0  0  0  0  0  0  0  0
  146.0040  154.1180  134.7380 C   0  0  0  0  0  0  0  0  0  0  0  0
  144.7620  154.6360  134.4530 C   0  0  0  0  0  0  0  0  0  0  0  0
  143.5890  153.7370  134.6110 C   0  0  0  0  0  0  0  0  0  0  0  0
  142.3660  154.5130  134.3040 C   0  0  0  0  0  0  0  0  0  0  0  0
  141.6810  154.9830  135.2690 O   0  0  0  0  0  0  0  0  0  0  0  0
  141.9470  154.7430  133.0010 O   0  0  0  0  0  0  0  0  0  0  0  0
  144.6040  155.9560  134.0310 C   0  0  0  0  0  0  0  0  0  0  0  0
  145.6980  156.7990  133.8820 C   0  0  0  0  0  0  0  0  0  0  0  0
  141.1930  160.9431  134.4857 H   0  0  0  0  0  0  0  0  0  0  0  0
  142.2942  160.9208  133.0667 H   0  0  0  0  0  0  0  0  0  0  0  0
  140.8087  159.9109  133.0667 H   0  0  0  0  0  0  0  0  0  0  0  0
  142.3183  157.8055  135.7890 H   0  0  0  0  0  0  0  0  0  0  0  0
  142.5914  159.5666  136.2640 H   0  0  0  0  0  0  0  0  0  0  0  0
  140.5169  159.3433  137.0383 H   0  0  0  0  0  0  0  0  0  0  0  0
  140.1453  159.7655  135.3159 H   0  0  0  0  0  0  0  0  0  0  0  0
  140.4575  156.9175  136.2122 H   0  0  0  0  0  0  0  0  0  0  0  0
  138.8996  157.8200  136.3888 H   0  0  0  0  0  0  0  0  0  0  0  0
  141.3500  156.5610  133.8640 H   0  0  0  0  0  0  0  0  0  0  0  0
  147.6240  161.2260  134.2920 H   0  0  0  0  0  0  0  0  0  0  0  0
  146.8430  161.3750  132.6260 H   0  0  0  0  0  0  0  0  0  0  0  0
  148.9345  157.1345  134.1068 H   0  0  0  0  0  0  0  0  0  0  0  0
  148.1004  154.5721  134.8078 H   0  0  0  0  0  0  0  0  0  0  0  0
  146.1243  153.0767  135.0715 H   0  0  0  0  0  0  0  0  0  0  0  0
  143.6749  152.8876  133.9173 H   0  0  0  0  0  0  0  0  0  0  0  0
  143.5441  153.3485  135.6391 H   0  0  0  0  0  0  0  0  0  0  0  0
  141.9680  155.6750  132.5890 H   0  0  0  0  0  0  0  0  0  0  0  0
  143.5952  156.3362  133.8123 H   0  0  0  0  0  0  0  0  0  0  0  0
  1  2  1  0
  2  3  1  0
  3  4  1  0
  4  5  1  0
  5  6  1  0
  6  7  2  0
  6  8  1  0
  2  9  1  0
  9 10  2  0
  9 11  1  0
 11 12  2  0
 11 13  1  0
 13 14  1  0
 14 15  1  0
 15 16  1  0
 15 17  2  0
 14 18  2  0
 18 19  1  0
 19 20  2  0
 20 21  1  0
 21 22  2  0
 22 23  1  0
 23 24  1  0
 24 25  2  0
 24 26  1  0
 22 27  1  0
 27 28  2  0
 28 13  1  0
 28 19  1  0
  1 29  1  0
  1 30  1  0
  1 31  1  0
  3 32  1  0
  3 33  1  0
  4 34  1  0
  4 35  1  0
  5 36  1  0
  5 37  1  0
  8 38  1  0
 16 39  1  0
 16 40  1  0
 18 41  1  0
 20 42  1  0
 21 43  1  0
 23 44  1  0
 23 45  1  0
 26 46  1  0
 27 47  1  0
M  END
>  <smiles>  (20) 
CN(CCCC(=O)O)C(=O)C(=O)n1c(C(N)=O)cc2ccc(CC(=O)O)cc21

>  <score_type>  (20) 
oracle

>  <origin>  (20) 
adg

>  <m_score__min__energy>  (20) 
-6.5999999999999996

>  <m_primary>  (20) 
energy

$$$$
20:0
     RDKit          3D

 44 45  0  0  0  0  0  0  0  0999 V2000
  141.1620  158.6290  136.0500 C   0  0  0  0  0  0  0  0  0  0  0  0
  141.9310  158.0370  134.9660 N   0  0  0  0  0  0  0  0  0  0  0  0
  141.5500  156.7670  134.3830 C   0  0  0  0  0  0  0  0  0  0  0  0
  143.0950  158.7010  134.4480 C   0  0  0  0  0  0  0  0  0  0  0  0
  143.1240  160.0700  134.3180 C   0  0  0  0  0  0  0  0  0  0  0  0
  144.2680  160.6390  133.8160 C   0  0  0  0  0  0  0  0  0  0  0  0
  145.3360  159.8500  133.4620 C   0  0  0  0  0  0  0  0  0  0  0  0
  146.5540  160.1830  132.9510 C   0  0  0  0  0  0  0  0  0  0  0  0
  147.3140  159.0080  132.7510 C   0  0  0  0  0  0  0  0  0  0  0  0
  148.6510  159.1060  132.2140 C   0  0  0  0  0  0  0  0  0  0  0  0
  149.0540  158.2360  131.1100 N   0  0  0  0  0  0  0  0  0  0  0  0
  149.5740  159.8670  132.5720 O   0  0  0  0  0  0  0  0  0  0  0  0
  146.5440  157.9740  133.1460 N   0  0  0  0  0  0  0  0  0  0  0  0
  146.9640  156.6370  133.0950 C   0  0  0  0  0  0  0  0  0  0  0  0
  147.0740  156.1210  131.9260 O   0  0  0  0  0  0  0  0  0  0  0  0
  147.2920  155.7540  134.1170 N   0  0  0  0  0  0  0  0  0  0  0  0
  147.7020  154.4040  133.7440 C   0  0  0  0  0  0  0  0  0  0  0  0
  146.5320  153.7650  133.0280 C   0  0  0  0  0  0  0  0  0  0  0  0
  148.0160  153.5510  134.9390 C   0  0  0  0  0  0  0  0  0  0  0  0
  148.8550  154.4160  132.8380 C   0  0  0  0  0  0  0  0  0  0  0  0
  149.2680  153.3170  132.3890 O   0  0  0  0  0  0  0  0  0  0  0  0
  149.4990  155.5750  132.4640 O   0  0  0  0  0  0  0  0  0  0  0  0
  145.3430  158.4690  133.5780 C   0  0  0  0  0  0  0  0  0  0  0  0
  144.1900  157.9220  134.0810 C   0  0  0  0  0  0  0  0  0  0  0  0
  141.5805  158.3068  137.0149 H   0  0  0  0  0  0  0  0  0  0  0  0
  141.2099  159.7255  135.9773 H   0  0  0  0  0  0  0  0  0  0  0  0
  140.1142  158.3022  135.9773 H   0  0  0  0  0  0  0  0  0  0  0  0
  141.3336  156.0457  135.1848 H   0  0  0  0  0  0  0  0  0  0  0  0
  140.6533  156.9035  133.7607 H   0  0  0  0  0  0  0  0  0  0  0  0
  142.3738  156.3873  133.7607 H   0  0  0  0  0  0  0  0  0  0  0  0
  142.2605  160.6875  134.6063 H   0  0  0  0  0  0  0  0  0  0  0  0
  144.3300  161.7308  133.6966 H   0  0  0  0  0  0  0  0  0  0  0  0
  146.8929  161.2056  132.7289 H   0  0  0  0  0  0  0  0  0  0  0  0
  149.5370  158.6330  130.2750 H   0  0  0  0  0  0  0  0  0  0  0  0
  148.8390  157.2020  131.1840 H   0  0  0  0  0  0  0  0  0  0  0  0
  147.2650  155.9830  135.0910 H   0  0  0  0  0  0  0  0  0  0  0  0
  145.8178  153.3750  133.7682 H   0  0  0  0  0  0  0  0  0  0  0  0
  146.0333  154.5160  132.3977 H   0  0  0  0  0  0  0  0  0  0  0  0
  146.8943  152.9395  132.3977 H   0  0  0  0  0  0  0  0  0  0  0  0
  147.8075  154.1173  135.8587 H   0  0  0  0  0  0  0  0  0  0  0  0
  147.3924  152.6451  134.9169 H   0  0  0  0  0  0  0  0  0  0  0  0
  149.0781  153.2656  134.9169 H   0  0  0  0  0  0  0  0  0  0  0  0
  149.2090  156.0140  131.5780 H   0  0  0  0  0  0  0  0  0  0  0  0
  144.1279  156.8301  134.1987 H   0  0  0  0  0  0  0  0  0  0  0  0
  1  2  1  0
  2  3  1  0
  2  4  1  0
  4  5  2  0
  5  6  1  0
  6  7  2  0
  7  8  1  0
  8  9  2  0
  9 10  1  0
 10 11  1  0
 10 12  2  0
  9 13  1  0
 13 14  1  0
 14 15  2  0
 14 16  1  0
 16 17  1  0
 17 18  1  0
 17 19  1  0
 17 20  1  0
 20 21  2  0
 20 22  1  0
 13 23  1  0
 23 24  2  0
 24  4  1  0
 23  7  1  0
  1 25  1  0
  1 26  1  0
  1 27  1  0
  3 28  1  0
  3 29  1  0
  3 30  1  0
  5 31  1  0
  6 32  1  0
  8 33  1  0
 11 34  1  0
 11 35  1  0
 16 36  1  0
 18 37  1  0
 18 38  1  0
 18 39  1  0
 19 40  1  0
 19 41  1  0
 19 42  1  0
 22 43  1  0
 24 44  1  0
M  END
>  <smiles>  (21) 
CN(C)c1ccc2cc(C(N)=O)n(C(=O)NC(C)(C)C(=O)O)c2c1

>  <score_type>  (21) 
oracle

>  <origin>  (21) 
adg

>  <m_score__min__energy>  (21) 
-6.9500000000000002

>  <m_primary>  (21) 
energy

$$$$
21:0
     RDKit          3D

 49 50  0  0  0  0  0  0  0  0999 V2000
  148.9890  157.6030  131.6640 N   0  0  0  0  0  0  0  0  0  0  0  0
  148.6030  158.6450  132.5900 C   0  0  0  0  0  0  0  0  0  0  0  0
  149.5510  159.3410  133.0110 O   0  0  0  0  0  0  0  0  0  0  0  0
  147.2080  158.7940  132.9430 C   0  0  0  0  0  0  0  0  0  0  0  0
  146.6300  160.0510  133.1830 C   0  0  0  0  0  0  0  0  0  0  0  0
  145.3030  159.8860  133.4950 C   0  0  0  0  0  0  0  0  0  0  0  0
  144.3140  160.7950  133.8080 C   0  0  0  0  0  0  0  0  0  0  0  0
  143.0510  160.3410  134.0810 C   0  0  0  0  0  0  0  0  0  0  0  0
  142.7790  159.0100  134.0420 C   0  0  0  0  0  0  0  0  0  0  0  0
  141.4030  158.5390  134.3410 C   0  0  0  0  0  0  0  0  0  0  0  0
  141.0570  158.5420  136.0820 Cl  0  0  0  0  0  0  0  0  0  0  0  0
  143.7920  158.1090  133.7240 C   0  0  0  0  0  0  0  0  0  0  0  0
  145.0790  158.5280  133.4420 C   0  0  0  0  0  0  0  0  0  0  0  0
  146.2360  157.8810  133.1080 N   0  0  0  0  0  0  0  0  0  0  0  0
  146.3580  156.4740  132.9670 C   0  0  0  0  0  0  0  0  0  0  0  0
  146.7300  155.8850  131.9300 O   0  0  0  0  0  0  0  0  0  0  0  0
  146.0470  155.6580  134.0480 O   0  0  0  0  0  0  0  0  0  0  0  0
  144.8790  154.8720  134.1580 C   0  0  0  0  0  0  0  0  0  0  0  0
  144.1810  154.6680  132.8610 C   0  0  0  0  0  0  0  0  0  0  0  0
  143.7940  153.2310  132.6820 C   0  0  0  0  0  0  0  0  0  0  0  0
  144.9400  152.3190  132.5000 C   0  0  0  0  0  0  0  0  0  0  0  0
  144.7540  151.1100  132.2920 O   0  0  0  0  0  0  0  0  0  0  0  0
  146.2410  152.8590  132.5690 N   0  0  0  0  0  0  0  0  0  0  0  0
  147.4830  152.1850  132.4500 C   0  0  0  0  0  0  0  0  0  0  0  0
  148.6740  152.6940  133.1750 C   0  0  0  0  0  0  0  0  0  0  0  0
  149.4050  153.8510  132.5980 C   0  0  0  0  0  0  0  0  0  0  0  0
  148.8200  155.0110  133.1770 O   0  0  0  0  0  0  0  0  0  0  0  0
  149.5560  157.8590  130.8080 H   0  0  0  0  0  0  0  0  0  0  0  0
  148.6910  156.6280  131.8780 H   0  0  0  0  0  0  0  0  0  0  0  0
  147.1568  161.0152  133.1295 H   0  0  0  0  0  0  0  0  0  0  0  0
  144.5370  161.8717  133.8380 H   0  0  0  0  0  0  0  0  0  0  0  0
  142.2540  161.0561  134.3327 H   0  0  0  0  0  0  0  0  0  0  0  0
  140.6843  159.2010  133.8358 H   0  0  0  0  0  0  0  0  0  0  0  0
  141.3147  157.5034  133.9809 H   0  0  0  0  0  0  0  0  0  0  0  0
  143.5618  157.0337  133.6964 H   0  0  0  0  0  0  0  0  0  0  0  0
  145.1577  153.8878  134.5627 H   0  0  0  0  0  0  0  0  0  0  0  0
  144.1851  155.4117  134.8192 H   0  0  0  0  0  0  0  0  0  0  0  0
  143.2745  155.2906  132.8380 H   0  0  0  0  0  0  0  0  0  0  0  0
  144.8632  154.9523  132.0463 H   0  0  0  0  0  0  0  0  0  0  0  0
  143.2345  152.9099  133.5730 H   0  0  0  0  0  0  0  0  0  0  0  0
  143.1936  153.1753  131.7620 H   0  0  0  0  0  0  0  0  0  0  0  0
  146.2840  153.9180  132.7320 H   0  0  0  0  0  0  0  0  0  0  0  0
  147.3188  151.1529  132.7933 H   0  0  0  0  0  0  0  0  0  0  0  0
  147.7493  152.3285  131.3924 H   0  0  0  0  0  0  0  0  0  0  0  0
  148.3423  152.9870  134.1820 H   0  0  0  0  0  0  0  0  0  0  0  0
  149.3958  151.8652  133.1295 H   0  0  0  0  0  0  0  0  0  0  0  0
  150.4736  153.7938  132.8527 H   0  0  0  0  0  0  0  0  0  0  0  0
  149.3324  153.8675  131.5005 H   0  0  0  0  0  0  0  0  0  0  0  0
  147.8870  154.7600  133.3770 H   0  0  0  0  0  0  0  0  0  0  0  0
  1  2  1  0
  2  3  2  0
  2  4  1  0
  4  5  2  0
  5  6  1  0
  6  7  2  0
  7  8  1  0
  8  9  2  0
  9 10  1  0
 10 11  1  0
  9 12  1  0
 12 13  2  0
 13 14  1  0
 14 15  1  0
 15 16  2  0
 15 17  1  0
 17 18  1  0
 18 19  1  0
 19 20  1  0
 20 21  1  0
 21 22  2  0
 21 23  1  0
 23 24  1  0
 24 25  1  0
 25 26  1  0
 26 27  1  0
 14  4  1  0
 13  6  1  0
  1 28  1  0
  1 29  1  0
  5 30  1  0
  7 31  1  0
  8 32  1  0
 10 33  1  0
 10 34  1  0
 12 35  1  0
 18 36  1  0
 18 37  1  0
 19 38  1  0
 19 39  1  0
 20 40  1  0
 20 41  1  0
 23 42  1  0
 24 43  1  0
 24 44  1  0
 25 45  1  0
 25 46  1  0
 26 47  1  0
 26 48  1  0
 27 49  1  0
M  END
>  <smiles>  (22) 
NC(=O)c1cc2ccc(CCl)cc2n1C(=O)OCCCC(=O)NCCCO

>  <score_type>  (22) 
oracle

>  <origin>  (22) 
adg

>  <m_score__min__energy>  (22) 
-7.1500000000000004

>  <m_primary>  (22) 
energy

$$$$
22:0
     RDKit          3D

 38 39  0  0  0  0  0  0  0  0999 V2000
  142.3630  159.9790  133.1690 N   0  0  0  0  0  0  0  0  0  0  0  0
  143.7340  160.2980  133.5420 C   0  0  0  0  0  0  0  0  0  0  0  0
  143.8940  161.4780  133.9020 O   0  0  0  0  0  0  0  0  0  0  0  0
  144.7240  159.2490  133.4550 C   0  0  0  0  0  0  0  0  0  0  0  0
  146.0510  159.6070  133.1030 C   0  0  0  0  0  0  0  0  0  0  0  0
  146.7730  158.4570  133.0410 C   0  0  0  0  0  0  0  0  0  0  0  0
  148.1060  158.2740  132.7430 C   0  0  0  0  0  0  0  0  0  0  0  0
  148.6570  157.0160  132.7380 C   0  0  0  0  0  0  0  0  0  0  0  0
  147.8280  155.9620  133.0410 C   0  0  0  0  0  0  0  0  0  0  0  0
  148.4150  154.6000  133.0380 C   0  0  0  0  0  0  0  0  0  0  0  0
  147.5570  153.7630  132.3340 F   0  0  0  0  0  0  0  0  0  0  0  0
  149.6900  154.6110  132.5310 F   0  0  0  0  0  0  0  0  0  0  0  0
  148.4760  154.1890  134.3600 F   0  0  0  0  0  0  0  0  0  0  0  0
  146.4810  156.1640  133.3410 C   0  0  0  0  0  0  0  0  0  0  0  0
  145.9130  157.4280  133.3480 C   0  0  0  0  0  0  0  0  0  0  0  0
  144.6560  157.9180  133.6050 N   0  0  0  0  0  0  0  0  0  0  0  0
  143.5910  157.0550  133.9140 C   0  0  0  0  0  0  0  0  0  0  0  0
  143.9600  155.8460  134.2100 O   0  0  0  0  0  0  0  0  0  0  0  0
  142.1840  157.2670  133.9710 C   0  0  0  0  0  0  0  0  0  0  0  0
  141.5290  158.0600  134.6690 O   0  0  0  0  0  0  0  0  0  0  0  0
  141.3230  156.4610  133.1020 N   0  0  0  0  0  0  0  0  0  0  0  0
  139.6220  156.8030  133.2530 S   0  0  0  0  0  0  0  0  0  0  0  0
  139.3510  157.6330  134.4810 O   0  0  0  0  0  0  0  0  0  0  0  0
  138.8040  155.5580  133.3540 O   0  0  0  0  0  0  0  0  0  0  0  0
  139.1100  157.7900  131.8510 C   0  0  0  0  0  0  0  0  0  0  0  0
  139.8810  159.0570  131.8970 C   0  0  0  0  0  0  0  0  0  0  0  0
  140.5370  159.4070  130.8610 O   0  0  0  0  0  0  0  0  0  0  0  0
  139.9240  159.8800  133.0090 O   0  0  0  0  0  0  0  0  0  0  0  0
  141.9860  160.1870  132.2370 H   0  0  0  0  0  0  0  0  0  0  0  0
  141.8200  159.5210  133.9510 H   0  0  0  0  0  0  0  0  0  0  0  0
  146.4253  160.6242  132.9155 H   0  0  0  0  0  0  0  0  0  0  0  0
  148.7353  159.1447  132.5066 H   0  0  0  0  0  0  0  0  0  0  0  0
  149.7195  156.8580  132.5010 H   0  0  0  0  0  0  0  0  0  0  0  0
  145.8509  155.2943  133.5791 H   0  0  0  0  0  0  0  0  0  0  0  0
  141.7040  155.7540  132.4580 H   0  0  0  0  0  0  0  0  0  0  0  0
  139.3237  157.2533  130.9149 H   0  0  0  0  0  0  0  0  0  0  0  0
  138.0292  157.9906  131.8904 H   0  0  0  0  0  0  0  0  0  0  0  0
  140.0580  159.4470  133.9290 H   0  0  0  0  0  0  0  0  0  0  0  0
  1  2  1  0
  2  3  2  0
  2  4  1  0
  4  5  2  0
  5  6  1  0
  6  7  2  0
  7  8  1  0
  8  9  2  0
  9 10  1  0
 10 11  1  0
 10 12  1  0
 10 13  1  0
  9 14  1  0
 14 15  2  0
 15 16  1  0
 16 17  1  0
 17 18  2  0
 17 19  1  0
 19 20  2  0
 19 21  1  0
 21 22  1  0
 22 23  2  0
 22 24  2  0
 22 25  1  0
 25 26  1  0
 26 27  2  0
 26 28  1  0
 16  4  1  0
 15  6  1  0
  1 29  1  0
  1 30  1  0
  5 31  1  0
  7 32  1  0
  8 33  1  0
 14 34  1  0
 21 35  1  0
 25 36  1  0
 25 37  1  0
 28 38  1  0
M  END
>  <smiles>  (23) 
NC(=O)c1cc2ccc(C(F)(F)F)cc2n1C(=O)C(=O)NS(=O)(=O)CC(=O)O

>  <score_type>  (23) 
oracle

>  <origin>  (23) 
adg

>  <m_score__min__energy>  (23) 
-8.1500000000000004

>  <m_primary>  (23) 
energy

$$$$
23:0
     RDKit          3D

 43 44  0  0  0  0  0  0  0  0999 V2000
  137.6140  159.4090  131.1730 C   0  0  0  0  0  0  0  0  0  0  0  0
  139.3130  159.5120  131.7180 S   0  0  0  0  0  0  0  0  0  0  0  0
  139.5350  160.9270  132.2330 O   0  0  0  0  0  0  0  0  0  0  0  0
  140.2610  159.3130  130.6150 O   0  0  0  0  0  0  0  0  0  0  0  0
  139.5830  158.4430  133.0980 C   0  0  0  0  0  0  0  0  0  0  0  0
  140.3950  159.0170  134.1950 C   0  0  0  0  0  0  0  0  0  0  0  0
  141.5580  158.1530  134.5380 C   0  0  0  0  0  0  0  0  0  0  0  0
  142.8190  158.8290  134.1380 C   0  0  0  0  0  0  0  0  0  0  0  0
  143.0150  160.1740  134.0560 C   0  0  0  0  0  0  0  0  0  0  0  0
  144.2370  160.6960  133.6760 C   0  0  0  0  0  0  0  0  0  0  0  0
  145.2550  159.8190  133.3820 C   0  0  0  0  0  0  0  0  0  0  0  0
  146.5420  160.0530  132.9850 C   0  0  0  0  0  0  0  0  0  0  0  0
  147.2040  158.8230  132.8040 C   0  0  0  0  0  0  0  0  0  0  0  0
  148.5870  158.7910  132.3840 C   0  0  0  0  0  0  0  0  0  0  0  0
  149.3120  157.5270  132.3770 N   0  0  0  0  0  0  0  0  0  0  0  0
  149.2830  159.7540  132.0040 O   0  0  0  0  0  0  0  0  0  0  0  0
  146.3120  157.8560  133.0920 N   0  0  0  0  0  0  0  0  0  0  0  0
  146.5800  156.4780  133.0290 C   0  0  0  0  0  0  0  0  0  0  0  0
  145.9270  155.7340  132.2370 O   0  0  0  0  0  0  0  0  0  0  0  0
  147.5990  155.7440  133.8270 C   0  0  0  0  0  0  0  0  0  0  0  0
  148.4010  154.8380  132.9090 C   0  0  0  0  0  0  0  0  0  0  0  0
  149.5910  155.0700  132.6150 O   0  0  0  0  0  0  0  0  0  0  0  0
  147.7540  153.7220  132.3960 O   0  0  0  0  0  0  0  0  0  0  0  0
  145.1250  158.4450  133.4440 C   0  0  0  0  0  0  0  0  0  0  0  0
  143.8880  157.9790  133.8270 C   0  0  0  0  0  0  0  0  0  0  0  0
  136.9498  159.3687  132.0489 H   0  0  0  0  0  0  0  0  0  0  0  0
  137.3689  160.2939  130.5673 H   0  0  0  0  0  0  0  0  0  0  0  0
  137.4776  158.5009  130.5673 H   0  0  0  0  0  0  0  0  0  0  0  0
  138.6015  158.1667  133.5107 H   0  0  0  0  0  0  0  0  0  0  0  0
  140.1561  157.5872  132.7117 H   0  0  0  0  0  0  0  0  0  0  0  0
  140.7658  160.0046  133.8833 H   0  0  0  0  0  0  0  0  0  0  0  0
  139.7553  159.0958  135.0864 H   0  0  0  0  0  0  0  0  0  0  0  0
  141.5697  157.9692  135.6225 H   0  0  0  0  0  0  0  0  0  0  0  0
  141.4717  157.1962  134.0021 H   0  0  0  0  0  0  0  0  0  0  0  0
  142.1866  160.8567  134.2963 H   0  0  0  0  0  0  0  0  0  0  0  0
  144.3912  161.7832  133.6105 H   0  0  0  0  0  0  0  0  0  0  0  0
  146.9901  161.0457  132.8311 H   0  0  0  0  0  0  0  0  0  0  0  0
  149.6040  157.1510  133.3190 H   0  0  0  0  0  0  0  0  0  0  0  0
  149.5190  157.0380  131.4780 H   0  0  0  0  0  0  0  0  0  0  0  0
  148.2736  156.4644  134.3127 H   0  0  0  0  0  0  0  0  0  0  0  0
  147.0973  155.1376  134.5955 H   0  0  0  0  0  0  0  0  0  0  0  0
  146.9020  153.7900  131.8550 H   0  0  0  0  0  0  0  0  0  0  0  0
  143.7321  156.8920  133.8917 H   0  0  0  0  0  0  0  0  0  0  0  0
  1  2  1  0
  2  3  2  0
  2  4  2  0
  2  5  1  0
  5  6  1  0
  6  7  1  0
  7  8  1  0
  8  9  2  0
  9 10  1  0
 10 11  2  0
 11 12  1  0
 12 13  2  0
 13 14  1  0
 14 15  1  0
 14 16  2  0
 13 17  1  0
 17 18  1  0
 18 19  2  0
 18 20  1  0
 20 21  1  0
 21 22  2  0
 21 23  1  0
 17 24  1  0
 24 25  2  0
 25  8  1  0
 24 11  1  0
  1 26  1  0
  1 27  1  0
  1 28  1  0
  5 29  1  0
  5 30  1  0
  6 31  1  0
  6 32  1  0
  7 33  1  0
  7 34  1  0
  9 35  1  0
 10 36  1  0
 12 37  1  0
 15 38  1  0
 15 39  1  0
 20 40  1  0
 20 41  1  0
 23 42  1  0
 25 43  1  0
M  END
>  <smiles>  (24) 
CS(=O)(=O)CCCc1ccc2cc(C(N)=O)n(C(=O)CC(=O)O)c2c1

>  <score_type>  (24) 
oracle

>  <origin>  (24) 
adg

>  <m_score__min__energy>  (24) 
-8.1699999999999999

>  <m_primary>  (24) 
energy

$$$$
24:0
     RDKit          3D

 45 46  0  0  0  0  0  0  0  0999 V2000
  146.3790  159.8530  133.6960 C   0  0  0  0  0  0  0  0  0  0  0  0
  145.5100  158.6510  133.4780 C   0  0  0  0  0  0  0  0  0  0  0  0
  144.1600  158.7870  133.3520 C   0  0  0  0  0  0  0  0  0  0  0  0
  143.3760  157.6780  133.1540 C   0  0  0  0  0  0  0  0  0  0  0  0
  143.9640  156.4390  133.0830 C   0  0  0  0  0  0  0  0  0  0  0  0
  143.4320  155.2080  132.8950 C   0  0  0  0  0  0  0  0  0  0  0  0
  144.4630  154.2520  132.8990 C   0  0  0  0  0  0  0  0  0  0  0  0
  144.1680  152.8440  132.7180 C   0  0  0  0  0  0  0  0  0  0  0  0
  145.2570  151.8800  132.6440 N   0  0  0  0  0  0  0  0  0  0  0  0
  143.0400  152.3250  132.6110 O   0  0  0  0  0  0  0  0  0  0  0  0
  145.6130  154.9130  133.0900 N   0  0  0  0  0  0  0  0  0  0  0  0
  146.8880  154.3250  133.1530 C   0  0  0  0  0  0  0  0  0  0  0  0
  147.1240  153.2520  133.8060 O   0  0  0  0  0  0  0  0  0  0  0  0
  148.1190  154.8600  132.4820 C   0  0  0  0  0  0  0  0  0  0  0  0
  148.9930  153.6160  132.3360 C   0  0  0  0  0  0  0  0  0  0  0  0
  150.2020  153.7700  132.5190 O   0  0  0  0  0  0  0  0  0  0  0  0
  148.4630  152.3620  132.0120 N   0  0  0  0  0  0  0  0  0  0  0  0
  149.3280  151.2180  131.8860 C   0  0  0  0  0  0  0  0  0  0  0  0
  150.3890  151.1830  132.9530 C   0  0  0  0  0  0  0  0  0  0  0  0
  149.9820  151.1090  130.5340 C   0  0  0  0  0  0  0  0  0  0  0  0
  148.4630  149.9840  132.0610 C   0  0  0  0  0  0  0  0  0  0  0  0
  147.2180  150.4150  132.5250 O   0  0  0  0  0  0  0  0  0  0  0  0
  145.3390  156.2420  133.2040 C   0  0  0  0  0  0  0  0  0  0  0  0
  146.0780  157.3840  133.4020 C   0  0  0  0  0  0  0  0  0  0  0  0
  146.5032  160.0248  134.7754 H   0  0  0  0  0  0  0  0  0  0  0  0
  147.3636  159.6819  133.2363 H   0  0  0  0  0  0  0  0  0  0  0  0
  145.9079  160.7343  133.2363 H   0  0  0  0  0  0  0  0  0  0  0  0
  143.6992  159.7842  133.4089 H   0  0  0  0  0  0  0  0  0  0  0  0
  142.2855  157.7808  133.0530 H   0  0  0  0  0  0  0  0  0  0  0  0
  142.3622  154.9903  132.7604 H   0  0  0  0  0  0  0  0  0  0  0  0
  145.2320  151.1260  131.9370 H   0  0  0  0  0  0  0  0  0  0  0  0
  146.0390  152.0110  133.3410 H   0  0  0  0  0  0  0  0  0  0  0  0
  147.8784  155.2927  131.4997 H   0  0  0  0  0  0  0  0  0  0  0  0
  148.6051  155.6698  133.0458 H   0  0  0  0  0  0  0  0  0  0  0  0
  147.4080  152.3120  131.8700 H   0  0  0  0  0  0  0  0  0  0  0  0
  149.9127  151.1987  133.9444 H   0  0  0  0  0  0  0  0  0  0  0  0
  150.9853  150.2647  132.8472 H   0  0  0  0  0  0  0  0  0  0  0  0
  151.0445  152.0600  132.8472 H   0  0  0  0  0  0  0  0  0  0  0  0
  151.0597  150.9294  130.6614 H   0  0  0  0  0  0  0  0  0  0  0  0
  149.5343  150.2731  129.9765 H   0  0  0  0  0  0  0  0  0  0  0  0
  149.8297  152.0449  129.9765 H   0  0  0  0  0  0  0  0  0  0  0  0
  148.3473  149.4651  131.0980 H   0  0  0  0  0  0  0  0  0  0  0  0
  148.9232  149.2821  132.7720 H   0  0  0  0  0  0  0  0  0  0  0  0
  147.3090  151.1280  133.2110 H   0  0  0  0  0  0  0  0  0  0  0  0
  147.1692  157.2913  133.5051 H   0  0  0  0  0  0  0  0  0  0  0  0
  1  2  1  0
  2  3  2  0
  3  4  1  0
  4  5  2  0
  5  6  1  0
  6  7  2  0
  7  8  1  0
  8  9  1  0
  8 10  2  0
  7 11  1  0
 11 12  1  0
 12 13  2  0
 12 14  1  0
 14 15  1  0
 15 16  2  0
 15 17  1  0
 17 18  1  0
 18 19  1  0
 18 20  1  0
 18 21  1  0
 21 22  1  0
 11 23  1  0
 23 24  2  0
 24  2  1  0
 23  5  1  0
  1 25  1  0
  1 26  1  0
  1 27  1  0
  3 28  1  0
  4 29  1  0
  6 30  1  0
  9 31  1  0
  9 32  1  0
 14 33  1  0
 14 34  1  0
 17 35  1  0
 19 36  1  0
 19 37  1  0
 19 38  1  0
 20 39  1  0
 20 40  1  0
 20 41  1  0
 21 42  1  0
 21 43  1  0
 22 44  1  0
 24 45  1  0
M  END
>  <smiles>  (25) 
Cc1ccc2cc(C(N)=O)n(C(=O)CC(=O)NC(C)(C)CO)c2c1

>  <score_type>  (25) 
oracle

>  <origin>  (25) 
adg

>  <m_score__min__energy>  (25) 
-8.0199999999999996

>  <m_primary>  (25) 
energy

$$$$
25:0
     RDKit          3D

 46 47  0  0  0  0  0  0  0  0999 V2000
  140.0750  149.1400  130.8130 C   0  0  0  0  0  0  0  0  0  0  0  0
  140.7960  149.8290  131.9480 C   0  0  0  0  0  0  0  0  0  0  0  0
  142.2450  149.3760  131.8700 C   0  0  0  0  0  0  0  0  0  0  0  0
  140.2370  149.2440  133.2290 C   0  0  0  0  0  0  0  0  0  0  0  0
  140.7340  151.2210  131.8840 O   0  0  0  0  0  0  0  0  0  0  0  0
  141.4970  152.0350  132.6890 C   0  0  0  0  0  0  0  0  0  0  0  0
  141.3290  151.9170  133.9420 O   0  0  0  0  0  0  0  0  0  0  0  0
  142.4380  152.9740  132.2510 N   0  0  0  0  0  0  0  0  0  0  0  0
  143.2120  153.8020  133.1510 C   0  0  0  0  0  0  0  0  0  0  0  0
  144.5670  153.2350  133.4850 C   0  0  0  0  0  0  0  0  0  0  0  0
  145.6510  154.2160  133.3160 C   0  0  0  0  0  0  0  0  0  0  0  0
  146.9620  153.7990  133.2410 C   0  0  0  0  0  0  0  0  0  0  0  0
  147.9600  154.7350  133.0840 C   0  0  0  0  0  0  0  0  0  0  0  0
  147.6380  156.0730  133.0020 C   0  0  0  0  0  0  0  0  0  0  0  0
  148.4190  157.1950  132.8470 C   0  0  0  0  0  0  0  0  0  0  0  0
  147.6040  158.3370  132.8200 C   0  0  0  0  0  0  0  0  0  0  0  0
  148.1530  159.6550  132.6690 C   0  0  0  0  0  0  0  0  0  0  0  0
  147.7230  160.8510  133.2720 N   0  0  0  0  0  0  0  0  0  0  0  0
  149.1630  159.7780  131.8880 O   0  0  0  0  0  0  0  0  0  0  0  0
  146.3450  157.8940  132.9600 N   0  0  0  0  0  0  0  0  0  0  0  0
  145.1670  158.6750  132.9930 C   0  0  0  0  0  0  0  0  0  0  0  0
  143.9970  158.2350  133.0060 O   0  0  0  0  0  0  0  0  0  0  0  0
  145.2560  160.0820  133.0160 O   0  0  0  0  0  0  0  0  0  0  0  0
  146.3420  156.5330  133.0710 C   0  0  0  0  0  0  0  0  0  0  0  0
  145.3590  155.5760  133.2280 C   0  0  0  0  0  0  0  0  0  0  0  0
  139.3368  148.4346  131.2221 H   0  0  0  0  0  0  0  0  0  0  0  0
  139.5611  149.8912  130.1953 H   0  0  0  0  0  0  0  0  0  0  0  0
  140.8022  148.5926  130.1953 H   0  0  0  0  0  0  0  0  0  0  0  0
  142.6453  149.2509  132.8869 H   0  0  0  0  0  0  0  0  0  0  0  0
  142.3011  148.4175  131.3333 H   0  0  0  0  0  0  0  0  0  0  0  0
  142.8371  150.1319  131.3333 H   0  0  0  0  0  0  0  0  0  0  0  0
  140.7075  149.7364  134.0928 H   0  0  0  0  0  0  0  0  0  0  0  0
  139.1495  149.4060  133.2621 H   0  0  0  0  0  0  0  0  0  0  0  0
  140.4482  148.1650  133.2621 H   0  0  0  0  0  0  0  0  0  0  0  0
  142.5750  153.0680  131.2040 H   0  0  0  0  0  0  0  0  0  0  0  0
  143.3542  154.7863  132.6809 H   0  0  0  0  0  0  0  0  0  0  0  0
  142.6490  153.8632  134.0940 H   0  0  0  0  0  0  0  0  0  0  0  0
  144.5586  152.8968  134.5317 H   0  0  0  0  0  0  0  0  0  0  0  0
  144.7597  152.4042  132.7903 H   0  0  0  0  0  0  0  0  0  0  0  0
  147.2091  152.7291  133.3059 H   0  0  0  0  0  0  0  0  0  0  0  0
  149.0110  154.4159  133.0242 H   0  0  0  0  0  0  0  0  0  0  0  0
  149.5154  157.1966  132.7578 H   0  0  0  0  0  0  0  0  0  0  0  0
  148.1010  161.1980  134.2040 H   0  0  0  0  0  0  0  0  0  0  0  0
  146.9900  161.4120  132.7440 H   0  0  0  0  0  0  0  0  0  0  0  0
  145.5280  160.5840  132.1610 H   0  0  0  0  0  0  0  0  0  0  0  0
  144.3088  155.8982  133.2856 H   0  0  0  0  0  0  0  0  0  0  0  0
  1  2  1  0
  2  3  1  0
  2  4  1  0
  2  5  1  0
  5  6  1  0
  6  7  2  0
  6  8  1  0
  8  9  1  0
  9 10  1  0
 10 11  1  0
 11 12  2  0
 12 13  1  0
 13 14  2  0
 14 15  1  0
 15 16  2  0
 16 17  1  0
 17 18  1  0
 17 19  2  0
 16 20  1  0
 20 21  1  0
 21 22  2  0
 21 23  1  0
 20 24  1  0
 24 25  2  0
 25 11  1  0
 24 14  1  0
  1 26  1  0
  1 27  1  0
  1 28  1  0
  3 29  1  0
  3 30  1  0
  3 31  1  0
  4 32  1  0
  4 33  1  0
  4 34  1  0
  8 35  1  0
  9 36  1  0
  9 37  1  0
 10 38  1  0
 10 39  1  0
 12 40  1  0
 13 41  1  0
 15 42  1  0
 18 43  1  0
 18 44  1  0
 23 45  1  0
 25 46  1  0
M  END
>  <smiles>  (26) 
CC(C)(C)OC(=O)NCCc1ccc2cc(C(N)=O)n(C(=O)O)c2c1

>  <score_type>  (26) 
oracle

>  <origin>  (26) 
adg

>  <m_score__min__energy>  (26) 
-8.0700000000000003

>  <m_primary>  (26) 
energy

$$$$
26:0
     RDKit          3D

 47 49  0  0  1  0  0  0  0  0999 V2000
  142.9520  157.8120  132.6080 N   0  0  0  0  0  0  0  0  0  0  0  0
  143.0060  156.8880  133.7230 C   0  0  0  0  0  0  0  0  0  0  0  0
  143.4340  157.3650  134.7800 O   0  0  0  0  0  0  0  0  0  0  0  0
  142.5630  155.5270  133.5000 C   0  0  0  0  0  0  0  0  0  0  0  0
  143.4400  154.4320  133.4470 C   0  0  0  0  0  0  0  0  0  0  0  0
  142.7260  153.2820  133.2220 C   0  0  0  0  0  0  0  0  0  0  0  0
  143.1240  151.9680  133.0920 C   0  0  0  0  0  0  0  0  0  0  0  0
  142.2030  150.9860  132.8690 C   0  0  0  0  0  0  0  0  0  0  0  0
  140.8730  151.3330  132.7760 C   0  0  0  0  0  0  0  0  0  0  0  0
  139.8910  150.3400  132.5460 N   0  0  0  0  0  0  0  0  0  0  0  0
  139.6070  149.8220  131.2450 C   0  0  1  0  0  0  0  0  0  0  0  0
  140.6260  148.8590  130.7090 C   0  0  0  0  0  0  0  0  0  0  0  0
  139.8890  147.5290  130.7090 C   0  0  0  0  0  0  0  0  0  0  0  0
  138.5850  147.8950  130.4480 O   0  0  0  0  0  0  0  0  0  0  0  0
  138.3330  149.0420  131.2030 C   0  0  0  0  0  0  0  0  0  0  0  0
  140.4850  152.6710  132.9110 C   0  0  0  0  0  0  0  0  0  0  0  0
  141.4000  153.6780  133.1370 C   0  0  0  0  0  0  0  0  0  0  0  0
  141.3340  155.0240  133.3070 N   0  0  0  0  0  0  0  0  0  0  0  0
  140.1120  155.7300  133.2730 C   0  0  0  0  0  0  0  0  0  0  0  0
  139.0810  155.1360  132.8270 O   0  0  0  0  0  0  0  0  0  0  0  0
  139.9150  157.0310  133.6850 O   0  0  0  0  0  0  0  0  0  0  0  0
  139.4660  158.0440  132.7530 C   0  0  0  0  0  0  0  0  0  0  0  0
  140.4990  158.8600  132.3870 O   0  0  0  0  0  0  0  0  0  0  0  0
  140.3580  160.1250  132.9130 C   0  0  0  0  0  0  0  0  0  0  0  0
  141.3860  160.3990  133.9550 C   0  0  0  0  0  0  0  0  0  0  0  0
  141.7320  159.2730  134.7010 O   0  0  0  0  0  0  0  0  0  0  0  0
  142.5520  158.7730  132.7240 H   0  0  0  0  0  0  0  0  0  0  0  0
  143.3320  157.4770  131.6730 H   0  0  0  0  0  0  0  0  0  0  0  0
  144.5320  154.4874  133.5674 H   0  0  0  0  0  0  0  0  0  0  0  0
  144.1905  151.7099  133.1685 H   0  0  0  0  0  0  0  0  0  0  0  0
  142.5168  149.9368  132.7654 H   0  0  0  0  0  0  0  0  0  0  0  0
  139.3370  149.9570  133.3520 H   0  0  0  0  0  0  0  0  0  0  0  0
  139.5781  150.7415  130.6419 H   0  0  0  0  0  0  0  0  0  0  0  0
  140.9339  149.1383  129.6906 H   0  0  0  0  0  0  0  0  0  0  0  0
  141.5508  148.8372  131.3042 H   0  0  0  0  0  0  0  0  0  0  0  0
  140.2768  146.8625  129.9246 H   0  0  0  0  0  0  0  0  0  0  0  0
  140.0019  146.9717  131.6506 H   0  0  0  0  0  0  0  0  0  0  0  0
  137.5392  149.6391  130.7305 H   0  0  0  0  0  0  0  0  0  0  0  0
  137.9978  148.7801  132.2174 H   0  0  0  0  0  0  0  0  0  0  0  0
  139.4180  152.9272  132.8345 H   0  0  0  0  0  0  0  0  0  0  0  0
  139.0588  157.5538  131.8564 H   0  0  0  0  0  0  0  0  0  0  0  0
  138.6918  158.6537  133.2417 H   0  0  0  0  0  0  0  0  0  0  0  0
  140.4634  160.8626  132.1038 H   0  0  0  0  0  0  0  0  0  0  0  0
  139.3647  160.1965  133.3801 H   0  0  0  0  0  0  0  0  0  0  0  0
  142.2910  160.7810  133.4600 H   0  0  0  0  0  0  0  0  0  0  0  0
  140.9537  161.1309  134.6532 H   0  0  0  0  0  0  0  0  0  0  0  0
  141.5080  158.4460  134.2380 H   0  0  0  0  0  0  0  0  0  0  0  0
  1  2  1  0
  2  3  2  0
  2  4  1  0
  4  5  2  0
  5  6  1  0
  6  7  2  0
  7  8  1  0
  8  9  2  0
  9 10  1  0
 10 11  1  0
 11 12  1  0
 12 13  1  0
 13 14  1  0
 14 15  1  0
  9 16  1  0
 16 17  2  0
 17 18  1  0
 18 19  1  0
 19 20  2  0
 19 21  1  0
 21 22  1  0
 22 23  1  0
 23 24  1  0
 24 25  1  0
 25 26  1  0
 18  4  1  0
 17  6  1  0
 15 11  1  0
  1 27  1  0
  1 28  1  0
  5 29  1  0
  7 30  1  0
  8 31  1  0
 10 32  1  0
 11 33  1  6
 12 34  1  0
 12 35  1  0
 13 36  1  0
 13 37  1  0
 15 38  1  0
 15 39  1  0
 16 40  1  0
 22 41  1  0
 22 42  1  0
 24 43  1  0
 24 44  1  0
 25 45  1  0
 25 46  1  0
 26 47  1  0
M  END
>  <smiles>  (27) 
NC(=O)c1cc2ccc(NC3CCOC3)cc2n1C(=O)OCOCCO

>  <score_type>  (27) 
oracle

>  <origin>  (27) 
adg

>  <m_score__min__energy>  (27) 
-7.1200000000000001

>  <m_primary>  (27) 
energy

$$$$
27:0
     RDKit          3D

 36 37  0  0  0  0  0  0  0  0999 V2000
  146.4350  152.3860  132.7260 N   0  0  0  0  0  0  0  0  0  0  0  0
  145.0400  152.2680  132.6060 C   0  0  0  0  0  0  0  0  0  0  0  0
  144.6630  151.0890  132.2540 O   0  0  0  0  0  0  0  0  0  0  0  0
  144.0010  153.2350  132.8110 C   0  0  0  0  0  0  0  0  0  0  0  0
  144.3140  154.6140  132.7670 C   0  0  0  0  0  0  0  0  0  0  0  0
  143.1710  155.3330  132.9860 C   0  0  0  0  0  0  0  0  0  0  0  0
  142.9810  156.6950  133.0530 C   0  0  0  0  0  0  0  0  0  0  0  0
  141.7340  157.2110  133.3130 C   0  0  0  0  0  0  0  0  0  0  0  0
  140.7090  156.3140  133.4990 C   0  0  0  0  0  0  0  0  0  0  0  0
  139.3490  156.8380  133.7840 C   0  0  0  0  0  0  0  0  0  0  0  0
  139.2980  157.6750  134.8720 F   0  0  0  0  0  0  0  0  0  0  0  0
  138.9850  157.5520  132.6330 F   0  0  0  0  0  0  0  0  0  0  0  0
  140.9180  154.9430  133.4270 C   0  0  0  0  0  0  0  0  0  0  0  0
  142.1720  154.4010  133.1620 C   0  0  0  0  0  0  0  0  0  0  0  0
  142.6600  153.1420  133.0580 N   0  0  0  0  0  0  0  0  0  0  0  0
  141.9490  151.9290  133.0870 C   0  0  0  0  0  0  0  0  0  0  0  0
  140.8630  151.8710  133.7560 O   0  0  0  0  0  0  0  0  0  0  0  0
  142.2720  150.7020  132.4670 N   0  0  0  0  0  0  0  0  0  0  0  0
  141.2710  149.2900  132.5740 S   0  0  0  0  0  0  0  0  0  0  0  0
  140.4760  149.2550  133.8480 O   0  0  0  0  0  0  0  0  0  0  0  0
  142.2110  148.1040  132.6510 O   0  0  0  0  0  0  0  0  0  0  0  0
  140.2230  149.0330  131.2110 C   0  0  0  0  0  0  0  0  0  0  0  0
  138.8840  149.6570  131.3160 C   0  0  0  0  0  0  0  0  0  0  0  0
  137.9980  149.2410  130.5220 O   0  0  0  0  0  0  0  0  0  0  0  0
  138.5350  150.6440  132.2000 O   0  0  0  0  0  0  0  0  0  0  0  0
  146.8700  152.2970  133.6960 H   0  0  0  0  0  0  0  0  0  0  0  0
  147.0340  152.5450  131.8730 H   0  0  0  0  0  0  0  0  0  0  0  0
  145.3126  155.0384  132.5863 H   0  0  0  0  0  0  0  0  0  0  0  0
  143.8322  157.3741  132.8975 H   0  0  0  0  0  0  0  0  0  0  0  0
  141.5633  158.2962  133.3699 H   0  0  0  0  0  0  0  0  0  0  0  0
  138.6740  156.0034  134.0244 H   0  0  0  0  0  0  0  0  0  0  0  0
  140.0664  154.2648  133.5842 H   0  0  0  0  0  0  0  0  0  0  0  0
  143.1470  150.5820  131.9460 H   0  0  0  0  0  0  0  0  0  0  0  0
  140.7195  149.4419  130.3187 H   0  0  0  0  0  0  0  0  0  0  0  0
  140.0499  147.9479  131.1606 H   0  0  0  0  0  0  0  0  0  0  0  0
  139.1020  150.7820  133.0300 H   0  0  0  0  0  0  0  0  0  0  0  0
  1  2  1  0
  2  3  2  0
  2  4  1  0
  4  5  2  0
  5  6  1  0
  6  7  2  0
  7  8  1  0
  8  9  2  0
  9 10  1  0
 10 11  1  0
 10 12  1  0
  9 13  1  0
 13 14  2  0
 14 15  1  0
 15 16  1  0
 16 17  2  0
 16 18  1  0
 18 19  1  0
 19 20  2  0
 19 21  2  0
 19 22  1  0
 22 23  1  0
 23 24  2  0
 23 25  1  0
 15  4  1  0
 14  6  1  0
  1 26  1  0
  1 27  1  0
  5 28  1  0
  7 29  1  0
  8 30  1  0
 10 31  1  0
 13 32  1  0
 18 33  1  0
 22 34  1  0
 22 35  1  0
 25 36  1  0
M  END
>  <smiles>  (28) 
NC(=O)c1cc2ccc(C(F)F)cc2n1C(=O)NS(=O)(=O)CC(=O)O

>  <score_type>  (28) 
oracle

>  <origin>  (28) 
adg

>  <m_score__min__energy>  (28) 
-7.6500000000000004

>  <m_primary>  (28) 
energy

$$$$
28:0
     RDKit          3D

 45 47  0  0  0  0  0  0  0  0999 V2000
  149.9610  151.0000  133.3440 C   0  0  0  0  0  0  0  0  0  0  0  0
  149.5430  151.8490  132.2390 N   0  0  0  0  0  0  0  0  0  0  0  0
  148.1550  151.5480  131.9600 C   0  0  0  0  0  0  0  0  0  0  0  0
  147.3860  152.5440  132.8370 C   0  0  0  0  0  0  0  0  0  0  0  0
  148.1920  153.7830  132.6100 C   0  0  1  0  0  0  0  0  0  0  0  0
  148.1210  154.7610  133.7440 C   0  0  0  0  0  0  0  0  0  0  0  0
  146.9300  155.6280  133.6180 N   0  0  0  0  0  0  0  0  0  0  0  0
  145.6120  155.2380  134.6560 Cl  0  0  0  0  0  0  0  0  0  0  0  0
  147.0620  156.7110  132.7410 C   0  0  0  0  0  0  0  0  0  0  0  0
  147.3250  156.3240  131.5230 O   0  0  0  0  0  0  0  0  0  0  0  0
  146.9790  158.0920  132.9280 N   0  0  0  0  0  0  0  0  0  0  0  0
  147.7800  159.1090  132.5980 C   0  0  0  0  0  0  0  0  0  0  0  0
  149.2060  159.1110  132.2570 C   0  0  0  0  0  0  0  0  0  0  0  0
  149.8860  157.8540  132.0370 N   0  0  0  0  0  0  0  0  0  0  0  0
  149.9090  160.1300  132.1370 O   0  0  0  0  0  0  0  0  0  0  0  0
  147.1410  160.3410  132.8010 C   0  0  0  0  0  0  0  0  0  0  0  0
  145.9010  160.0470  133.2820 C   0  0  0  0  0  0  0  0  0  0  0  0
  144.8810  160.9120  133.6430 C   0  0  0  0  0  0  0  0  0  0  0  0
  143.6920  160.4020  134.1110 C   0  0  0  0  0  0  0  0  0  0  0  0
  143.5710  159.0390  134.1980 C   0  0  0  0  0  0  0  0  0  0  0  0
  142.2770  158.4930  134.7080 C   0  0  0  0  0  0  0  0  0  0  0  0
  141.4200  158.1470  133.6990 F   0  0  0  0  0  0  0  0  0  0  0  0
  142.5690  157.3420  135.4390 F   0  0  0  0  0  0  0  0  0  0  0  0
  141.7290  159.4150  135.5840 F   0  0  0  0  0  0  0  0  0  0  0  0
  144.6070  158.1800  133.8310 C   0  0  0  0  0  0  0  0  0  0  0  0
  145.8140  158.6880  133.3560 C   0  0  0  0  0  0  0  0  0  0  0  0
  149.6080  153.2470  132.5790 C   0  0  0  0  0  0  0  0  0  0  0  0
  149.7184  151.4927  134.2971 H   0  0  0  0  0  0  0  0  0  0  0  0
  149.4345  150.0360  133.2852 H   0  0  0  0  0  0  0  0  0  0  0  0
  151.0461  150.8294  133.2852 H   0  0  0  0  0  0  0  0  0  0  0  0
  147.9258  151.7037  130.8955 H   0  0  0  0  0  0  0  0  0  0  0  0
  147.8938  150.5009  132.1730 H   0  0  0  0  0  0  0  0  0  0  0  0
  146.3471  152.6670  132.4971 H   0  0  0  0  0  0  0  0  0  0  0  0
  147.2881  152.2468  133.8916 H   0  0  0  0  0  0  0  0  0  0  0  0
  147.8405  154.3174  131.7151 H   0  0  0  0  0  0  0  0  0  0  0  0
  148.0656  154.2084  134.6935 H   0  0  0  0  0  0  0  0  0  0  0  0
  149.0207  155.3934  133.7201 H   0  0  0  0  0  0  0  0  0  0  0  0
  150.8600  157.7260  132.4160 H   0  0  0  0  0  0  0  0  0  0  0  0
  149.3730  157.1180  131.5030 H   0  0  0  0  0  0  0  0  0  0  0  0
  147.5568  161.3414  132.6105 H   0  0  0  0  0  0  0  0  0  0  0  0
  145.0208  161.9996  133.5561 H   0  0  0  0  0  0  0  0  0  0  0  0
  142.8658  161.0657  134.4056 H   0  0  0  0  0  0  0  0  0  0  0  0
  144.4696  157.0920  133.9174 H   0  0  0  0  0  0  0  0  0  0  0  0
  150.1965  153.7886  131.8238 H   0  0  0  0  0  0  0  0  0  0  0  0
  150.0911  153.3819  133.5580 H   0  0  0  0  0  0  0  0  0  0  0  0
  1  2  1  0
  2  3  1  0
  3  4  1  0
  4  5  1  0
  5  6  1  0
  6  7  1  0
  7  8  1  0
  7  9  1  0
  9 10  2  0
  9 11  1  0
 11 12  1  0
 12 13  1  0
 13 14  1  0
 13 15  2  0
 12 16  2  0
 16 17  1  0
 17 18  2  0
 18 19  1  0
 19 20  2  0
 20 21  1  0
 21 22  1  0
 21 23  1  0
 21 24  1  0
 20 25  1  0
 25 26  2  0
  5 27  1  0
 27  2  1  0
 26 11  1  0
 26 17  1  0
  1 28  1  0
  1 29  1  0
  1 30  1  0
  3 31  1  0
  3 32  1  0
  4 33  1  0
  4 34  1  0
  5 35  1  6
  6 36  1  0
  6 37  1  0
 14 38  1  0
 14 39  1  0
 16 40  1  0
 18 41  1  0
 19 42  1  0
 25 43  1  0
 27 44  1  0
 27 45  1  0
M  END
>  <smiles>  (29) 
CN1CC[C@@H](CN(Cl)C(=O)n2c(C(N)=O)cc3ccc(C(F)(F)F)cc32)C1

>  <score_type>  (29) 
oracle

>  <origin>  (29) 
adg

>  <m_score__min__energy>  (29) 
-8.4600000000000009

>  <m_primary>  (29) 
energy

$$$$
29:0
     RDKit          3D

 49 50  0  0  0  0  0  0  0  0999 V2000
  139.0870  149.6050  129.7160 C   0  0  0  0  0  0  0  0  0  0  0  0
  139.3730  148.8100  130.8830 N   0  0  0  0  0  0  0  0  0  0  0  0
  139.7850  147.4710  130.5100 C   0  0  0  0  0  0  0  0  0  0  0  0
  140.3550  149.4030  131.7690 C   0  0  0  0  0  0  0  0  0  0  0  0
  140.0340  150.8010  132.1950 C   0  0  0  0  0  0  0  0  0  0  0  0
  140.9880  151.3440  133.0850 O   0  0  0  0  0  0  0  0  0  0  0  0
  141.3680  152.6720  133.0010 C   0  0  0  0  0  0  0  0  0  0  0  0
  140.6070  153.6050  132.6450 O   0  0  0  0  0  0  0  0  0  0  0  0
  142.7930  152.9880  133.3670 C   0  0  0  0  0  0  0  0  0  0  0  0
  143.5290  153.6570  132.2460 C   0  0  0  0  0  0  0  0  0  0  0  0
  143.5110  155.0550  132.2730 O   0  0  0  0  0  0  0  0  0  0  0  0
  144.1780  155.8740  133.1460 C   0  0  0  0  0  0  0  0  0  0  0  0
  145.0960  155.2970  133.8320 O   0  0  0  0  0  0  0  0  0  0  0  0
  143.9440  157.2520  133.3430 N   0  0  0  0  0  0  0  0  0  0  0  0
  142.7710  157.8640  133.5170 C   0  0  0  0  0  0  0  0  0  0  0  0
  141.4260  157.3410  133.5570 C   0  0  0  0  0  0  0  0  0  0  0  0
  141.1830  155.9580  133.2060 N   0  0  0  0  0  0  0  0  0  0  0  0
  140.3960  157.9770  133.8770 O   0  0  0  0  0  0  0  0  0  0  0  0
  143.0370  159.2320  133.6770 C   0  0  0  0  0  0  0  0  0  0  0  0
  144.3810  159.4320  133.5950 C   0  0  0  0  0  0  0  0  0  0  0  0
  145.1470  160.5680  133.6830 C   0  0  0  0  0  0  0  0  0  0  0  0
  146.5190  160.5110  133.5660 C   0  0  0  0  0  0  0  0  0  0  0  0
  147.1090  159.2800  133.3560 C   0  0  0  0  0  0  0  0  0  0  0  0
  148.5860  159.1920  133.2270 C   0  0  0  0  0  0  0  0  0  0  0  0
  149.2220  159.3300  134.4320 F   0  0  0  0  0  0  0  0  0  0  0  0
  149.0440  160.1270  132.3030 F   0  0  0  0  0  0  0  0  0  0  0  0
  146.3120  158.1420  133.2700 C   0  0  0  0  0  0  0  0  0  0  0  0
  144.9390  158.1890  133.3860 C   0  0  0  0  0  0  0  0  0  0  0  0
  138.7299  150.5978  130.0272 H   0  0  0  0  0  0  0  0  0  0  0  0
  140.0015  149.7161  129.1149 H   0  0  0  0  0  0  0  0  0  0  0  0
  138.3113  149.1081  129.1149 H   0  0  0  0  0  0  0  0  0  0  0  0
  139.9677  146.8773  131.4178 H   0  0  0  0  0  0  0  0  0  0  0  0
  138.9915  146.9957  129.9146 H   0  0  0  0  0  0  0  0  0  0  0  0
  140.7084  147.5240  129.9146 H   0  0  0  0  0  0  0  0  0  0  0  0
  140.4290  148.7765  132.6701 H   0  0  0  0  0  0  0  0  0  0  0  0
  141.2983  149.4537  131.2055 H   0  0  0  0  0  0  0  0  0  0  0  0
  139.9890  151.4379  131.2993 H   0  0  0  0  0  0  0  0  0  0  0  0
  139.0717  150.7681  132.7270 H   0  0  0  0  0  0  0  0  0  0  0  0
  142.7947  153.6562  134.2408 H   0  0  0  0  0  0  0  0  0  0  0  0
  143.3037  152.0392  133.5884 H   0  0  0  0  0  0  0  0  0  0  0  0
  144.5784  153.3293  132.2844 H   0  0  0  0  0  0  0  0  0  0  0  0
  143.0105  153.3627  131.3216 H   0  0  0  0  0  0  0  0  0  0  0  0
  141.3990  155.5950  132.2480 H   0  0  0  0  0  0  0  0  0  0  0  0
  140.7810  155.3720  133.9740 H   0  0  0  0  0  0  0  0  0  0  0  0
  142.2826  160.0154  133.8419 H   0  0  0  0  0  0  0  0  0  0  0  0
  144.6579  161.5391  133.8495 H   0  0  0  0  0  0  0  0  0  0  0  0
  147.1291  161.4234  133.6381 H   0  0  0  0  0  0  0  0  0  0  0  0
  148.8296  158.1841  132.8599 H   0  0  0  0  0  0  0  0  0  0  0  0
  146.7960  157.1684  133.1032 H   0  0  0  0  0  0  0  0  0  0  0  0
  1  2  1  0
  2  3  1  0
  2  4  1  0
  4  5  1  0
  5  6  1  0
  6  7  1  0
  7  8  2  0
  7  9  1  0
  9 10  1  0
 10 11  1  0
 11 12  1  0
 12 13  2  0
 12 14  1  0
 14 15  1  0
 15 16  1  0
 16 17  1  0
 16 18  2  0
 15 19  2  0
 19 20  1  0
 20 21  2  0
 21 22  1  0
 22 23  2  0
 23 24  1  0
 24 25  1  0
 24 26  1  0
 23 27  1  0
 27 28  2  0
 28 14  1  0
 28 20  1  0
  1 29  1  0
  1 30  1  0
  1 31  1  0
  3 32  1  0
  3 33  1  0
  3 34  1  0
  4 35  1  0
  4 36  1  0
  5 37  1  0
  5 38  1  0
  9 39  1  0
  9 40  1  0
 10 41  1  0
 10 42  1  0
 17 43  1  0
 17 44  1  0
 19 45  1  0
 21 46  1  0
 22 47  1  0
 24 48  1  0
 27 49  1  0
M  END
>  <smiles>  (30) 
CN(C)CCOC(=O)CCOC(=O)n1c(C(N)=O)cc2ccc(C(F)F)cc21

>  <score_type>  (30) 
oracle

>  <origin>  (30) 
adg

>  <m_score__min__energy>  (30) 
-6.9199999999999999

>  <m_primary>  (30) 
energy

$$$$
30:0
     RDKit          3D

 39 40  0  0  0  0  0  0  0  0999 V2000
  149.9170  158.0150  131.8720 C   0  0  0  0  0  0  0  0  0  0  0  0
  149.1630  159.1690  131.5280 N   0  0  0  0  0  0  0  0  0  0  0  0
  149.5320  159.8680  130.3230 C   0  0  0  0  0  0  0  0  0  0  0  0
  150.7400  159.9070  129.9620 O   0  0  0  0  0  0  0  0  0  0  0  0
  148.6000  160.5000  129.5480 O   0  0  0  0  0  0  0  0  0  0  0  0
  148.0490  159.6850  132.3120 C   0  0  0  0  0  0  0  0  0  0  0  0
  147.7360  160.8550  131.9890 O   0  0  0  0  0  0  0  0  0  0  0  0
  147.4510  158.8590  133.3170 C   0  0  0  0  0  0  0  0  0  0  0  0
  148.1420  158.8040  134.4090 O   0  0  0  0  0  0  0  0  0  0  0  0
  146.2750  158.1100  133.3550 N   0  0  0  0  0  0  0  0  0  0  0  0
  145.0480  158.6840  133.5410 C   0  0  0  0  0  0  0  0  0  0  0  0
  144.6050  160.0580  133.5970 C   0  0  0  0  0  0  0  0  0  0  0  0
  145.5870  161.1250  133.8020 N   0  0  0  0  0  0  0  0  0  0  0  0
  143.4430  160.4930  133.4910 O   0  0  0  0  0  0  0  0  0  0  0  0
  144.1120  157.6380  133.6250 C   0  0  0  0  0  0  0  0  0  0  0  0
  144.7520  156.4480  133.4930 C   0  0  0  0  0  0  0  0  0  0  0  0
  144.2600  155.1650  133.5270 C   0  0  0  0  0  0  0  0  0  0  0  0
  145.1020  154.0910  133.3950 C   0  0  0  0  0  0  0  0  0  0  0  0
  146.4410  154.3540  133.2310 C   0  0  0  0  0  0  0  0  0  0  0  0
  147.3550  153.2510  133.0920 C   0  0  0  0  0  0  0  0  0  0  0  0
  148.1140  152.3190  132.9750 C   0  0  0  0  0  0  0  0  0  0  0  0
  149.2420  150.9540  132.7770 P   0  0  0  0  0  0  0  0  0  0  0  0
  150.3300  150.9790  133.8060 O   0  0  0  0  0  0  0  0  0  0  0  0
  149.9590  151.0210  131.2490 O   0  0  0  0  0  0  0  0  0  0  0  0
  148.3250  149.5490  132.9630 O   0  0  0  0  0  0  0  0  0  0  0  0
  146.9240  155.6680  133.1990 C   0  0  0  0  0  0  0  0  0  0  0  0
  146.0920  156.7550  133.3270 C   0  0  0  0  0  0  0  0  0  0  0  0
  149.9743  157.9274  132.9670 H   0  0  0  0  0  0  0  0  0  0  0  0
  149.4284  157.1208  131.4577 H   0  0  0  0  0  0  0  0  0  0  0  0
  150.9322  158.1033  131.4577 H   0  0  0  0  0  0  0  0  0  0  0  0
  147.9910  161.2210  129.8690 H   0  0  0  0  0  0  0  0  0  0  0  0
  146.1470  161.4780  132.9990 H   0  0  0  0  0  0  0  0  0  0  0  0
  145.6820  161.4870  134.7680 H   0  0  0  0  0  0  0  0  0  0  0  0
  143.0295  157.7643  133.7744 H   0  0  0  0  0  0  0  0  0  0  0  0
  143.1810  154.9984  133.6613 H   0  0  0  0  0  0  0  0  0  0  0  0
  144.7209  153.0594  133.4194 H   0  0  0  0  0  0  0  0  0  0  0  0
  150.8360  151.5070  131.3440 H   0  0  0  0  0  0  0  0  0  0  0  0
  147.7170  149.6270  133.7370 H   0  0  0  0  0  0  0  0  0  0  0  0
  148.0031  155.8358  133.0673 H   0  0  0  0  0  0  0  0  0  0  0  0
  1  2  1  0
  2  3  1  0
  3  4  2  0
  3  5  1  0
  2  6  1  0
  6  7  2  0
  6  8  1  0
  8  9  2  0
  8 10  1  0
 10 11  1  0
 11 12  1  0
 12 13  1  0
 12 14  2  0
 11 15  2  0
 15 16  1  0
 16 17  2  0
 17 18  1  0
 18 19  2  0
 19 20  1  0
 20 21  3  0
 21 22  1  0
 22 23  2  0
 22 24  1  0
 22 25  1  0
 19 26  1  0
 26 27  2  0
 27 10  1  0
 27 16  1  0
  1 28  1  0
  1 29  1  0
  1 30  1  0
  5 31  1  0
 13 32  1  0
 13 33  1  0
 15 34  1  0
 17 35  1  0
 18 36  1  0
 24 37  1  0
 25 38  1  0
 26 39  1  0
M  END
>  <smiles>  (31) 
CN(C(=O)O)C(=O)C(=O)n1c(C(N)=O)cc2ccc(C#CP(=O)(O)O)cc21

>  <score_type>  (31) 
oracle

>  <origin>  (31) 
adg

>  <m_score__min__energy>  (31) 
-7.79

>  <m_primary>  (31) 
energy

$$$$
31:0
     RDKit          3D

 41 43  0  0  0  0  0  0  0  0999 V2000
  149.2840  149.9580  132.2060 N   0  0  0  0  0  0  0  0  0  0  0  0
  148.9740  151.0500  132.3740 C   0  0  0  0  0  0  0  0  0  0  0  0
  148.5900  152.4130  132.5640 C   0  0  0  0  0  0  0  0  0  0  0  0
  147.2880  152.7970  132.8610 C   0  0  0  0  0  0  0  0  0  0  0  0
  147.0090  154.1400  133.0270 C   0  0  0  0  0  0  0  0  0  0  0  0
  147.9810  155.1240  132.9080 C   0  0  0  0  0  0  0  0  0  0  0  0
  147.6860  156.5400  133.0840 C   0  0  0  0  0  0  0  0  0  0  0  0
  148.7410  157.4110  133.1010 C   0  0  0  0  0  0  0  0  0  0  0  0
  148.4850  158.7550  133.2670 C   0  0  0  0  0  0  0  0  0  0  0  0
  147.1890  159.2070  133.4110 C   0  0  0  0  0  0  0  0  0  0  0  0
  146.6830  160.4580  133.5850 C   0  0  0  0  0  0  0  0  0  0  0  0
  145.2910  160.3830  133.6790 C   0  0  0  0  0  0  0  0  0  0  0  0
  144.4560  161.5530  133.8680 C   0  0  0  0  0  0  0  0  0  0  0  0
  143.0350  161.4220  133.7270 N   0  0  0  0  0  0  0  0  0  0  0  0
  144.8580  162.7040  134.1510 O   0  0  0  0  0  0  0  0  0  0  0  0
  144.9650  159.0850  133.5620 N   0  0  0  0  0  0  0  0  0  0  0  0
  143.6770  158.5020  133.5930 C   0  0  0  0  0  0  0  0  0  0  0  0
  143.3590  157.6230  132.7230 O   0  0  0  0  0  0  0  0  0  0  0  0
  142.6850  158.7960  134.5060 O   0  0  0  0  0  0  0  0  0  0  0  0
  141.3300  158.4210  134.3890 C   0  0  0  0  0  0  0  0  0  0  0  0
  140.5050  159.3910  133.5720 C   0  0  0  0  0  0  0  0  0  0  0  0
  141.3730  160.0190  132.6800 O   0  0  0  0  0  0  0  0  0  0  0  0
  146.1050  158.3570  133.3980 C   0  0  0  0  0  0  0  0  0  0  0  0
  146.3800  157.0130  133.2320 C   0  0  0  0  0  0  0  0  0  0  0  0
  149.2740  154.7210  132.6110 C   0  0  0  0  0  0  0  0  0  0  0  0
  149.5680  153.3750  132.4420 C   0  0  0  0  0  0  0  0  0  0  0  0
  146.4924  152.0441  132.9623 H   0  0  0  0  0  0  0  0  0  0  0  0
  145.9775  154.4410  133.2624 H   0  0  0  0  0  0  0  0  0  0  0  0
  149.7722  157.0461  132.9846 H   0  0  0  0  0  0  0  0  0  0  0  0
  149.3190  159.4720  133.2848 H   0  0  0  0  0  0  0  0  0  0  0  0
  147.2762  161.3825  133.6426 H   0  0  0  0  0  0  0  0  0  0  0  0
  142.5360  160.8320  134.4560 H   0  0  0  0  0  0  0  0  0  0  0  0
  142.5180  161.8880  132.9410 H   0  0  0  0  0  0  0  0  0  0  0  0
  141.2823  157.4325  133.9088 H   0  0  0  0  0  0  0  0  0  0  0  0
  140.9075  158.4116  135.4046 H   0  0  0  0  0  0  0  0  0  0  0  0
  139.7235  158.8490  133.0193 H   0  0  0  0  0  0  0  0  0  0  0  0
  140.0114  160.1285  134.2220 H   0  0  0  0  0  0  0  0  0  0  0  0
  142.1020  159.3850  132.4590 H   0  0  0  0  0  0  0  0  0  0  0  0
  145.5467  156.2951  133.2159 H   0  0  0  0  0  0  0  0  0  0  0  0
  150.0712  155.4720  132.5087 H   0  0  0  0  0  0  0  0  0  0  0  0
  150.5989  153.0717  132.2068 H   0  0  0  0  0  0  0  0  0  0  0  0
  1  2  3  0
  2  3  1  0
  3  4  2  0
  4  5  1  0
  5  6  2  0
  6  7  1  0
  7  8  2  0
  8  9  1  0
  9 10  2  0
 10 11  1  0
 11 12  2  0
 12 13  1  0
 13 14  1  0
 13 15  2  0
 12 16  1  0
 16 17  1  0
 17 18  2  0
 17 19  1  0
 19 20  1  0
 20 21  1  0
 21 22  1  0
 16 23  1  0
 23 24  2  0
  6 25  1  0
 25 26  2  0
 26  3  1  0
 24  7  1  0
 23 10  1  0
  4 27  1  0
  5 28  1  0
  8 29  1  0
  9 30  1  0
 11 31  1  0
 14 32  1  0
 14 33  1  0
 20 34  1  0
 20 35  1  0
 21 36  1  0
 21 37  1  0
 22 38  1  0
 24 39  1  0
 25 40  1  0
 26 41  1  0
M  END
>  <smiles>  (32) 
N#Cc1ccc(-c2ccc3cc(C(N)=O)n(C(=O)OCCO)c3c2)cc1

>  <score_type>  (32) 
oracle

>  <origin>  (32) 
adg

>  <m_score__min__energy>  (32) 
-8.2699999999999996

>  <m_primary>  (32) 
energy

$$$$
32:0
     RDKit          3D

 46 49  0  0  1  0  0  0  0  0999 V2000
  142.3520  157.4710  132.3180 N   0  0  0  0  0  0  0  0  0  0  0  0
  143.2500  157.2580  133.4270 C   0  0  0  0  0  0  0  0  0  0  0  0
  144.3970  157.6850  133.2700 O   0  0  0  0  0  0  0  0  0  0  0  0
  142.7490  156.5730  134.6170 C   0  0  0  0  0  0  0  0  0  0  0  0
  143.5510  155.5550  135.1710 C   0  0  0  0  0  0  0  0  0  0  0  0
  142.9140  155.1380  136.2940 C   0  0  0  0  0  0  0  0  0  0  0  0
  143.2720  154.1610  137.1960 C   0  0  0  0  0  0  0  0  0  0  0  0
  142.4840  153.8740  138.2770 C   0  0  0  0  0  0  0  0  0  0  0  0
  141.3240  154.5980  138.4230 C   0  0  0  0  0  0  0  0  0  0  0  0
  140.4530  154.3010  139.5900 C   0  0  0  0  0  0  0  0  0  0  0  0
  139.1420  154.5280  139.1490 F   0  0  0  0  0  0  0  0  0  0  0  0
  140.7290  155.2380  140.5910 F   0  0  0  0  0  0  0  0  0  0  0  0
  140.6110  153.0220  140.0380 F   0  0  0  0  0  0  0  0  0  0  0  0
  140.9680  155.5880  137.5010 C   0  0  0  0  0  0  0  0  0  0  0  0
  141.7690  155.8820  136.4040 C   0  0  0  0  0  0  0  0  0  0  0  0
  141.6620  156.7730  135.3580 N   0  0  0  0  0  0  0  0  0  0  0  0
  140.6010  157.6750  135.2940 C   0  0  0  0  0  0  0  0  0  0  0  0
  140.0640  157.9210  136.4790 O   0  0  0  0  0  0  0  0  0  0  0  0
  139.9300  158.3900  134.3230 N   0  0  0  0  0  0  0  0  0  0  0  0
  140.6360  159.6930  133.9890 C   0  0  0  0  0  0  0  0  0  0  0  0
  140.0920  160.1420  132.6720 C   0  0  0  0  0  0  0  0  0  0  0  0
  140.0560  158.9870  131.7830 N   0  0  0  0  0  0  0  0  0  0  0  0
  139.8580  159.3900  130.4020 C   0  0  0  0  0  0  0  0  0  0  0  0
  138.4350  159.9040  130.3740 C   0  0  0  0  0  0  0  0  0  0  0  0
  137.7350  159.1340  131.4810 C   0  0  0  0  0  0  0  0  0  0  0  0
  138.8230  158.2910  132.1370 C   0  0  2  0  0  0  0  0  0  0  0  0
  138.6860  158.2570  133.6450 C   0  0  0  0  0  0  0  0  0  0  0  0
  142.1820  158.4430  131.9740 H   0  0  0  0  0  0  0  0  0  0  0  0
  141.8940  156.6320  131.8910 H   0  0  0  0  0  0  0  0  0  0  0  0
  144.5031  155.1746  134.7725 H   0  0  0  0  0  0  0  0  0  0  0  0
  144.2072  153.6019  137.0449 H   0  0  0  0  0  0  0  0  0  0  0  0
  142.7670  153.0952  139.0004 H   0  0  0  0  0  0  0  0  0  0  0  0
  140.0320  156.1469  137.6477 H   0  0  0  0  0  0  0  0  0  0  0  0
  140.4294  160.4469  134.7629 H   0  0  0  0  0  0  0  0  0  0  0  0
  141.7265  159.5555  133.9441 H   0  0  0  0  0  0  0  0  0  0  0  0
  139.0763  160.5430  132.8046 H   0  0  0  0  0  0  0  0  0  0  0  0
  140.7264  160.9331  132.2458 H   0  0  0  0  0  0  0  0  0  0  0  0
  140.5663  160.1830  130.1202 H   0  0  0  0  0  0  0  0  0  0  0  0
  140.0262  158.5673  129.6915 H   0  0  0  0  0  0  0  0  0  0  0  0
  138.4074  160.9853  130.5741 H   0  0  0  0  0  0  0  0  0  0  0  0
  137.9557  159.7600  129.3944 H   0  0  0  0  0  0  0  0  0  0  0  0
  137.2920  159.8270  132.2114 H   0  0  0  0  0  0  0  0  0  0  0  0
  136.9145  158.5130  131.0922 H   0  0  0  0  0  0  0  0  0  0  0  0
  138.7806  157.2443  131.8015 H   0  0  0  0  0  0  0  0  0  0  0  0
  138.0285  159.0825  133.9552 H   0  0  0  0  0  0  0  0  0  0  0  0
  138.2700  157.2748  133.9139 H   0  0  0  0  0  0  0  0  0  0  0  0
  1  2  1  0
  2  3  2  0
  2  4  1  0
  4  5  2  0
  5  6  1  0
  6  7  2  0
  7  8  1  0
  8  9  2  0
  9 10  1  0
 10 11  1  0
 10 12  1  0
 10 13  1  0
  9 14  1  0
 14 15  2  0
 15 16  1  0
 16 17  1  0
 17 18  2  0
 17 19  1  0
 19 20  1  0
 20 21  1  0
 21 22  1  0
 22 23  1  0
 23 24  1  0
 24 25  1  0
 25 26  1  0
 26 27  1  0
 16  4  1  0
 27 19  1  0
 15  6  1  0
 26 22  1  0
  1 28  1  0
  1 29  1  0
  5 30  1  0
  7 31  1  0
  8 32  1  0
 14 33  1  0
 20 34  1  0
 20 35  1  0
 21 36  1  0
 21 37  1  0
 23 38  1  0
 23 39  1  0
 24 40  1  0
 24 41  1  0
 25 42  1  0
 25 43  1  0
 26 44  1  6
 27 45  1  0
 27 46  1  0
M  END
>  <smiles>  (33) 
NC(=O)c1cc2ccc(C(F)(F)F)cc2n1C(=O)N1CCN2CCCC2C1

>  <score_type>  (33) 
oracle

>  <origin>  (33) 
adg

>  <m_score__min__energy>  (33) 
-8.6400000000000006

>  <m_primary>  (33) 
energy

$$$$
33:0
     RDKit          3D

 45 46  0  0  0  0  0  0  0  0999 V2000
  139.5160  155.7340  132.9940 C   0  0  0  0  0  0  0  0  0  0  0  0
  139.7590  156.9050  133.9080 C   0  0  0  0  0  0  0  0  0  0  0  0
  140.9270  156.7650  134.6850 O   0  0  0  0  0  0  0  0  0  0  0  0
  141.4090  157.6690  135.5890 C   0  0  0  0  0  0  0  0  0  0  0  0
  141.9500  157.2750  136.6540 O   0  0  0  0  0  0  0  0  0  0  0  0
  141.2960  159.1300  135.3170 C   0  0  0  0  0  0  0  0  0  0  0  0
  141.8200  159.3820  133.9970 N   0  0  0  0  0  0  0  0  0  0  0  0
  141.1380  160.4530  133.2410 C   0  0  0  0  0  0  0  0  0  0  0  0
  140.0650  159.9240  132.4320 C   0  0  0  0  0  0  0  0  0  0  0  0
  139.2260  159.4900  131.7870 N   0  0  0  0  0  0  0  0  0  0  0  0
  142.9090  158.6870  133.3990 C   0  0  0  0  0  0  0  0  0  0  0  0
  142.5560  157.7900  132.5510 O   0  0  0  0  0  0  0  0  0  0  0  0
  144.2970  158.9560  133.7130 C   0  0  0  0  0  0  0  0  0  0  0  0
  144.5400  160.1360  134.1130 O   0  0  0  0  0  0  0  0  0  0  0  0
  145.3890  158.0740  133.6370 N   0  0  0  0  0  0  0  0  0  0  0  0
  145.6140  156.8720  134.1870 C   0  0  0  0  0  0  0  0  0  0  0  0
  144.7120  155.9010  134.7670 C   0  0  0  0  0  0  0  0  0  0  0  0
  143.2980  155.9140  134.6780 N   0  0  0  0  0  0  0  0  0  0  0  0
  145.2050  154.9170  135.4200 O   0  0  0  0  0  0  0  0  0  0  0  0
  146.9630  156.5050  133.9700 C   0  0  0  0  0  0  0  0  0  0  0  0
  147.5400  157.5070  133.2720 C   0  0  0  0  0  0  0  0  0  0  0  0
  148.8420  157.6320  132.8110 C   0  0  0  0  0  0  0  0  0  0  0  0
  149.2250  158.7540  132.1090 C   0  0  0  0  0  0  0  0  0  0  0  0
  148.2830  159.7260  131.8900 C   0  0  0  0  0  0  0  0  0  0  0  0
  148.6900  160.9460  131.1300 C   0  0  0  0  0  0  0  0  0  0  0  0
  149.4320  160.4960  129.5940 Cl  0  0  0  0  0  0  0  0  0  0  0  0
  146.9750  159.5870  132.3610 C   0  0  0  0  0  0  0  0  0  0  0  0
  146.5770  158.4630  133.0680 C   0  0  0  0  0  0  0  0  0  0  0  0
  139.3289  154.8321  133.5954 H   0  0  0  0  0  0  0  0  0  0  0  0
  138.6414  155.9395  132.3594 H   0  0  0  0  0  0  0  0  0  0  0  0
  140.4002  155.5746  132.3594 H   0  0  0  0  0  0  0  0  0  0  0  0
  139.8524  157.8140  133.2956 H   0  0  0  0  0  0  0  0  0  0  0  0
  138.9075  156.9626  134.6020 H   0  0  0  0  0  0  0  0  0  0  0  0
  140.2409  159.4375  135.3643 H   0  0  0  0  0  0  0  0  0  0  0  0
  141.8617  159.7021  136.0671 H   0  0  0  0  0  0  0  0  0  0  0  0
  140.7243  161.1846  133.9506 H   0  0  0  0  0  0  0  0  0  0  0  0
  141.8725  160.9288  132.5746 H   0  0  0  0  0  0  0  0  0  0  0  0
  142.8700  156.2450  133.7770 H   0  0  0  0  0  0  0  0  0  0  0  0
  142.6730  155.6170  135.4520 H   0  0  0  0  0  0  0  0  0  0  0  0
  147.4503  155.5780  134.3065 H   0  0  0  0  0  0  0  0  0  0  0  0
  149.5716  156.8324  133.0065 H   0  0  0  0  0  0  0  0  0  0  0  0
  150.2537  158.8664  131.7361 H   0  0  0  0  0  0  0  0  0  0  0  0
  147.8016  161.5649  130.9356 H   0  0  0  0  0  0  0  0  0  0  0  0
  149.4212  161.5105  131.7272 H   0  0  0  0  0  0  0  0  0  0  0  0
  146.2452  160.3868  132.1666 H   0  0  0  0  0  0  0  0  0  0  0  0
  1  2  1  0
  2  3  1  0
  3  4  1  0
  4  5  2  0
  4  6  1  0
  6  7  1  0
  7  8  1  0
  8  9  1  0
  9 10  3  0
  7 11  1  0
 11 12  2  0
 11 13  1  0
 13 14  2  0
 13 15  1  0
 15 16  1  0
 16 17  1  0
 17 18  1  0
 17 19  2  0
 16 20  2  0
 20 21  1  0
 21 22  2  0
 22 23  1  0
 23 24  2  0
 24 25  1  0
 25 26  1  0
 24 27  1  0
 27 28  2  0
 28 15  1  0
 28 21  1  0
  1 29  1  0
  1 30  1  0
  1 31  1  0
  2 32  1  0
  2 33  1  0
  6 34  1  0
  6 35  1  0
  8 36  1  0
  8 37  1  0
 18 38  1  0
 18 39  1  0
 20 40  1  0
 22 41  1  0
 23 42  1  0
 25 43  1  0
 25 44  1  0
 27 45  1  0
M  END
>  <smiles>  (34) 
CCOC(=O)CN(CC#N)C(=O)C(=O)n1c(C(N)=O)cc2ccc(CCl)cc21

>  <score_type>  (34) 
oracle

>  <origin>  (34) 
adg

>  <m_score__min__energy>  (34) 
-7.8399999999999999

>  <m_primary>  (34) 
energy

$$$$
34:0
     RDKit          3D

 45 47  0  0  0  0  0  0  0  0999 V2000
  148.2120  160.5390  130.7620 C   0  0  0  0  0  0  0  0  0  0  0  0
  148.2610  159.8210  131.8470 C   0  0  0  0  0  0  0  0  0  0  0  0
  149.6090  158.6000  131.8010 Cl  0  0  0  0  0  0  0  0  0  0  0  0
  147.4490  159.7710  133.0060 C   0  0  0  0  0  0  0  0  0  0  0  0
  148.0320  160.2970  134.0700 O   0  0  0  0  0  0  0  0  0  0  0  0
  146.1610  159.3040  133.3020 N   0  0  0  0  0  0  0  0  0  0  0  0
  145.1690  160.1190  133.7680 C   0  0  0  0  0  0  0  0  0  0  0  0
  145.0920  161.5640  133.8810 C   0  0  0  0  0  0  0  0  0  0  0  0
  146.2970  162.3480  134.1050 N   0  0  0  0  0  0  0  0  0  0  0  0
  144.0550  162.2630  133.8030 O   0  0  0  0  0  0  0  0  0  0  0  0
  144.0630  159.3290  134.1070 C   0  0  0  0  0  0  0  0  0  0  0  0
  144.3720  158.0420  133.8540 C   0  0  0  0  0  0  0  0  0  0  0  0
  143.6410  156.8890  134.0500 C   0  0  0  0  0  0  0  0  0  0  0  0
  144.1690  155.6590  133.7660 C   0  0  0  0  0  0  0  0  0  0  0  0
  145.4550  155.6170  133.2800 C   0  0  0  0  0  0  0  0  0  0  0  0
  146.0870  154.3660  132.9640 N   0  0  0  0  0  0  0  0  0  0  0  0
  147.3960  154.0150  133.5190 C   0  0  0  0  0  0  0  0  0  0  0  0
  148.0390  153.0020  132.5810 C   0  0  0  0  0  0  0  0  0  0  0  0
  147.1930  151.8320  132.5030 N   0  0  0  0  0  0  0  0  0  0  0  0
  147.7390  150.5450  132.2970 C   0  0  0  0  0  0  0  0  0  0  0  0
  149.2000  150.3450  132.1520 C   0  0  0  0  0  0  0  0  0  0  0  0
  146.9570  149.5420  132.2350 O   0  0  0  0  0  0  0  0  0  0  0  0
  145.7710  152.0240  132.6430 C   0  0  0  0  0  0  0  0  0  0  0  0
  145.4350  153.4180  132.0880 C   0  0  0  0  0  0  0  0  0  0  0  0
  146.1690  156.7790  133.0900 C   0  0  0  0  0  0  0  0  0  0  0  0
  145.6710  158.0370  133.3580 C   0  0  0  0  0  0  0  0  0  0  0  0
  147.4439  161.3188  130.6527 H   0  0  0  0  0  0  0  0  0  0  0  0
  148.9387  160.3659  129.9546 H   0  0  0  0  0  0  0  0  0  0  0  0
  146.9710  162.0320  134.8370 H   0  0  0  0  0  0  0  0  0  0  0  0
  146.4620  163.2210  133.5220 H   0  0  0  0  0  0  0  0  0  0  0  0
  143.1075  159.6958  134.5100 H   0  0  0  0  0  0  0  0  0  0  0  0
  142.6155  156.9594  134.4415 H   0  0  0  0  0  0  0  0  0  0  0  0
  143.5869  154.7385  133.9206 H   0  0  0  0  0  0  0  0  0  0  0  0
  148.0265  154.9136  133.5893 H   0  0  0  0  0  0  0  0  0  0  0  0
  147.2859  153.5908  134.5279 H   0  0  0  0  0  0  0  0  0  0  0  0
  148.1502  153.4445  131.5801 H   0  0  0  0  0  0  0  0  0  0  0  0
  149.0314  152.7192  132.9621 H   0  0  0  0  0  0  0  0  0  0  0  0
  149.6621  150.2817  133.1482 H   0  0  0  0  0  0  0  0  0  0  0  0
  149.3894  149.4125  131.6001 H   0  0  0  0  0  0  0  0  0  0  0  0
  149.6331  151.1922  131.6001 H   0  0  0  0  0  0  0  0  0  0  0  0
  145.2303  151.2532  132.0742 H   0  0  0  0  0  0  0  0  0  0  0  0
  145.4719  151.9453  133.6986 H   0  0  0  0  0  0  0  0  0  0  0  0
  145.8160  153.5222  131.0614 H   0  0  0  0  0  0  0  0  0  0  0  0
  144.3484  153.5852  132.0522 H   0  0  0  0  0  0  0  0  0  0  0  0
  147.1953  156.6994  132.7023 H   0  0  0  0  0  0  0  0  0  0  0  0
  1  2  2  0
  2  3  1  0
  2  4  1  0
  4  5  2  0
  4  6  1  0
  6  7  1  0
  7  8  1  0
  8  9  1  0
  8 10  2  0
  7 11  2  0
 11 12  1  0
 12 13  2  0
 13 14  1  0
 14 15  2  0
 15 16  1  0
 16 17  1  0
 17 18  1  0
 18 19  1  0
 19 20  1  0
 20 21  1  0
 20 22  2  0
 19 23  1  0
 23 24  1  0
 15 25  1  0
 25 26  2  0
 26  6  1  0
 26 12  1  0
 24 16  1  0
  1 27  1  0
  1 28  1  0
  9 29  1  0
  9 30  1  0
 11 31  1  0
 13 32  1  0
 14 33  1  0
 17 34  1  0
 17 35  1  0
 18 36  1  0
 18 37  1  0
 21 38  1  0
 21 39  1  0
 21 40  1  0
 23 41  1  0
 23 42  1  0
 24 43  1  0
 24 44  1  0
 25 45  1  0
M  END
>  <smiles>  (35) 
C=C(Cl)C(=O)n1c(C(N)=O)cc2ccc(N3CCN(C(C)=O)CC3)cc21

>  <score_type>  (35) 
oracle

>  <origin>  (35) 
adg

>  <m_score__min__energy>  (35) 
-7.9500000000000002

>  <m_primary>  (35) 
energy

$$$$
35:0
     RDKit          3D

 44 45  0  0  0  0  0  0  0  0999 V2000
  147.5350  153.3920  137.2760 C   0  0  0  0  0  0  0  0  0  0  0  0
  146.5570  153.7110  136.3500 O   0  0  0  0  0  0  0  0  0  0  0  0
  147.0360  154.4250  135.2740 C   0  0  0  0  0  0  0  0  0  0  0  0
  145.9970  155.0200  134.3870 C   0  0  0  0  0  0  0  0  0  0  0  0
  144.8890  154.1950  134.1610 O   0  0  0  0  0  0  0  0  0  0  0  0
  144.8850  153.1110  133.3010 C   0  0  0  0  0  0  0  0  0  0  0  0
  145.9910  152.7440  132.8380 O   0  0  0  0  0  0  0  0  0  0  0  0
  143.5890  152.4650  132.9900 C   0  0  0  0  0  0  0  0  0  0  0  0
  142.6400  152.6020  134.1910 C   0  0  0  0  0  0  0  0  0  0  0  0
  141.6870  153.7060  133.9650 C   0  0  0  0  0  0  0  0  0  0  0  0
  141.0230  153.5870  132.8760 O   0  0  0  0  0  0  0  0  0  0  0  0
  141.4620  154.8160  134.7990 N   0  0  0  0  0  0  0  0  0  0  0  0
  141.9090  154.9440  136.0740 C   0  0  0  0  0  0  0  0  0  0  0  0
  142.6820  154.0770  136.9200 C   0  0  0  0  0  0  0  0  0  0  0  0
  144.1120  153.9450  136.6900 N   0  0  0  0  0  0  0  0  0  0  0  0
  142.2740  153.3840  137.8790 O   0  0  0  0  0  0  0  0  0  0  0  0
  141.4640  156.1950  136.5250 C   0  0  0  0  0  0  0  0  0  0  0  0
  140.7550  156.8200  135.5380 C   0  0  0  0  0  0  0  0  0  0  0  0
  140.1300  158.0460  135.5080 C   0  0  0  0  0  0  0  0  0  0  0  0
  139.4730  158.4550  134.3800 C   0  0  0  0  0  0  0  0  0  0  0  0
  139.4550  157.6180  133.2890 C   0  0  0  0  0  0  0  0  0  0  0  0
  138.7390  158.0790  132.0770 C   0  0  0  0  0  0  0  0  0  0  0  0
  139.6950  159.3370  131.2460 Cl  0  0  0  0  0  0  0  0  0  0  0  0
  140.0960  156.3780  133.3410 C   0  0  0  0  0  0  0  0  0  0  0  0
  140.7650  155.9430  134.4650 C   0  0  0  0  0  0  0  0  0  0  0  0
  147.1344  153.5227  138.2921 H   0  0  0  0  0  0  0  0  0  0  0  0
  147.8454  152.3460  137.1359 H   0  0  0  0  0  0  0  0  0  0  0  0
  148.4024  154.0538  137.1359 H   0  0  0  0  0  0  0  0  0  0  0  0
  147.6607  155.2435  135.6611 H   0  0  0  0  0  0  0  0  0  0  0  0
  147.5869  153.7033  134.6530 H   0  0  0  0  0  0  0  0  0  0  0  0
  145.6427  155.9530  134.8497 H   0  0  0  0  0  0  0  0  0  0  0  0
  146.4737  155.1809  133.4088 H   0  0  0  0  0  0  0  0  0  0  0  0
  143.1396  152.9513  132.1116 H   0  0  0  0  0  0  0  0  0  0  0  0
  143.7555  151.3987  132.7773 H   0  0  0  0  0  0  0  0  0  0  0  0
  142.0830  151.6626  134.3228 H   0  0  0  0  0  0  0  0  0  0  0  0
  143.2317  152.8179  135.0928 H   0  0  0  0  0  0  0  0  0  0  0  0
  144.7260  154.5030  137.3250 H   0  0  0  0  0  0  0  0  0  0  0  0
  144.4760  153.3240  135.9320 H   0  0  0  0  0  0  0  0  0  0  0  0
  141.6570  156.6114  137.5247 H   0  0  0  0  0  0  0  0  0  0  0  0
  140.1589  158.6984  136.3932 H   0  0  0  0  0  0  0  0  0  0  0  0
  138.9698  159.4326  134.3464 H   0  0  0  0  0  0  0  0  0  0  0  0
  138.5877  157.2276  131.3971 H   0  0  0  0  0  0  0  0  0  0  0  0
  137.7656  158.4993  132.3701 H   0  0  0  0  0  0  0  0  0  0  0  0
  140.0659  155.7267  132.4551 H   0  0  0  0  0  0  0  0  0  0  0  0
  1  2  1  0
  2  3  1  0
  3  4  1  0
  4  5  1  0
  5  6  1  0
  6  7  2  0
  6  8  1  0
  8  9  1  0
  9 10  1  0
 10 11  2  0
 10 12  1  0
 12 13  1  0
 13 14  1  0
 14 15  1  0
 14 16  2  0
 13 17  2  0
 17 18  1  0
 18 19  2  0
 19 20  1  0
 20 21  2  0
 21 22  1  0
 22 23  1  0
 21 24  1  0
 24 25  2  0
 25 12  1  0
 25 18  1  0
  1 26  1  0
  1 27  1  0
  1 28  1  0
  3 29  1  0
  3 30  1  0
  4 31  1  0
  4 32  1  0
  8 33  1  0
  8 34  1  0
  9 35  1  0
  9 36  1  0
 15 37  1  0
 15 38  1  0
 17 39  1  0
 19 40  1  0
 20 41  1  0
 22 42  1  0
 22 43  1  0
 24 44  1  0
M  END
>  <smiles>  (36) 
COCCOC(=O)CCC(=O)n1c(C(N)=O)cc2ccc(CCl)cc21

>  <score_type>  (36) 
oracle

>  <origin>  (36) 
adg

>  <m_score__min__energy>  (36) 
-7.3300000000000001

>  <m_primary>  (36) 
energy

$$$$
36:0
     RDKit          3D

 44 45  0  0  0  0  0  0  0  0999 V2000
  142.8400  150.0100  132.2600 C   0  0  0  0  0  0  0  0  0  0  0  0
  141.6950  150.8440  132.5820 N   0  0  0  0  0  0  0  0  0  0  0  0
  140.4240  150.2300  132.8990 C   0  0  0  0  0  0  0  0  0  0  0  0
  139.7390  149.7640  131.6480 C   0  0  0  0  0  0  0  0  0  0  0  0
  139.8230  150.7400  130.6660 O   0  0  0  0  0  0  0  0  0  0  0  0
  141.7620  152.2660  132.6010 C   0  0  0  0  0  0  0  0  0  0  0  0
  140.7330  153.0010  132.5990 O   0  0  0  0  0  0  0  0  0  0  0  0
  143.1080  152.8850  132.6260 C   0  0  0  0  0  0  0  0  0  0  0  0
  142.9640  154.3280  132.7590 N   0  0  0  0  0  0  0  0  0  0  0  0
  144.1370  155.0740  132.9580 C   0  0  0  0  0  0  0  0  0  0  0  0
  145.1900  154.3450  132.9860 O   0  0  0  0  0  0  0  0  0  0  0  0
  144.3070  156.4550  133.1210 N   0  0  0  0  0  0  0  0  0  0  0  0
  145.5140  157.0420  133.2580 C   0  0  0  0  0  0  0  0  0  0  0  0
  146.8700  156.5340  133.2300 C   0  0  0  0  0  0  0  0  0  0  0  0
  147.3500  155.8150  132.0530 N   0  0  0  0  0  0  0  0  0  0  0  0
  147.7420  156.6280  134.1180 O   0  0  0  0  0  0  0  0  0  0  0  0
  145.2900  158.4210  133.4320 C   0  0  0  0  0  0  0  0  0  0  0  0
  143.9550  158.6640  133.4000 C   0  0  0  0  0  0  0  0  0  0  0  0
  143.2540  159.8320  133.5280 C   0  0  0  0  0  0  0  0  0  0  0  0
  141.8900  159.8360  133.4660 C   0  0  0  0  0  0  0  0  0  0  0  0
  141.2510  158.6360  133.2750 C   0  0  0  0  0  0  0  0  0  0  0  0
  139.7500  158.5940  133.2030 C   0  0  0  0  0  0  0  0  0  0  0  0
  139.3500  159.7470  132.5410 F   0  0  0  0  0  0  0  0  0  0  0  0
  141.9800  157.4570  133.1480 C   0  0  0  0  0  0  0  0  0  0  0  0
  143.3560  157.4230  133.2050 C   0  0  0  0  0  0  0  0  0  0  0  0
  143.3148  149.6641  133.1900 H   0  0  0  0  0  0  0  0  0  0  0  0
  142.5073  149.1412  131.6731 H   0  0  0  0  0  0  0  0  0  0  0  0
  143.5649  150.5931  131.6731 H   0  0  0  0  0  0  0  0  0  0  0  0
  140.5934  149.3683  133.5614 H   0  0  0  0  0  0  0  0  0  0  0  0
  139.7849  150.9727  133.3990 H   0  0  0  0  0  0  0  0  0  0  0  0
  140.2238  148.8442  131.2890 H   0  0  0  0  0  0  0  0  0  0  0  0
  138.6797  149.5672  131.8699 H   0  0  0  0  0  0  0  0  0  0  0  0
  140.0260  151.5850  131.1080 H   0  0  0  0  0  0  0  0  0  0  0  0
  143.6792  152.4912  133.4796 H   0  0  0  0  0  0  0  0  0  0  0  0
  143.6428  152.6493  131.6941 H   0  0  0  0  0  0  0  0  0  0  0  0
  142.0490  154.7300  132.6960 H   0  0  0  0  0  0  0  0  0  0  0  0
  148.0190  156.3090  131.4210 H   0  0  0  0  0  0  0  0  0  0  0  0
  147.0100  154.8410  131.8900 H   0  0  0  0  0  0  0  0  0  0  0  0
  146.0728  159.1811  133.5718 H   0  0  0  0  0  0  0  0  0  0  0  0
  143.7947  160.7774  133.6824 H   0  0  0  0  0  0  0  0  0  0  0  0
  141.3207  160.7719  133.5660 H   0  0  0  0  0  0  0  0  0  0  0  0
  139.4219  157.7039  132.6461 H   0  0  0  0  0  0  0  0  0  0  0  0
  139.3069  158.5411  134.2084 H   0  0  0  0  0  0  0  0  0  0  0  0
  141.4350  156.5137  132.9959 H   0  0  0  0  0  0  0  0  0  0  0  0
  1  2  1  0
  2  3  1  0
  3  4  1  0
  4  5  1  0
  2  6  1  0
  6  7  2  0
  6  8  1  0
  8  9  1  0
  9 10  1  0
 10 11  2  0
 10 12  1  0
 12 13  1  0
 13 14  1  0
 14 15  1  0
 14 16  2  0
 13 17  2  0
 17 18  1  0
 18 19  2  0
 19 20  1  0
 20 21  2  0
 21 22  1  0
 22 23  1  0
 21 24  1  0
 24 25  2  0
 25 12  1  0
 25 18  1  0
  1 26  1  0
  1 27  1  0
  1 28  1  0
  3 29  1  0
  3 30  1  0
  4 31  1  0
  4 32  1  0
  5 33  1  0
  8 34  1  0
  8 35  1  0
  9 36  1  0
 15 37  1  0
 15 38  1  0
 17 39  1  0
 19 40  1  0
 20 41  1  0
 22 42  1  0
 22 43  1  0
 24 44  1  0
M  END
>  <smiles>  (37) 
CN(CCO)C(=O)CNC(=O)n1c(C(N)=O)cc2ccc(CF)cc21

>  <score_type>  (37) 
oracle

>  <origin>  (37) 
adg

>  <m_score__min__energy>  (37) 
-7.46

>  <m_primary>  (37) 
energy

$$$$
37:0
     RDKit          3D

 46 48  0  0  1  0  0  0  0  0999 V2000
  140.2460  159.3760  136.1970 N   0  0  0  0  0  0  0  0  0  0  0  0
  141.2790  158.4870  136.5470 C   0  0  0  0  0  0  0  0  0  0  0  0
  142.0610  158.9070  137.4710 O   0  0  0  0  0  0  0  0  0  0  0  0
  141.5500  157.1850  135.9960 C   0  0  0  0  0  0  0  0  0  0  0  0
  141.7580  156.0700  136.8220 C   0  0  0  0  0  0  0  0  0  0  0  0
  141.9950  154.9570  136.0490 C   0  0  0  0  0  0  0  0  0  0  0  0
  142.2510  153.6510  136.3840 C   0  0  0  0  0  0  0  0  0  0  0  0
  142.4540  152.7310  135.3820 C   0  0  0  0  0  0  0  0  0  0  0  0
  142.4020  153.1070  134.0600 C   0  0  0  0  0  0  0  0  0  0  0  0
  142.5890  152.1870  132.9990 N   0  0  0  0  0  0  0  0  0  0  0  0
  141.7010  151.2040  132.5710 C   0  0  0  0  0  0  0  0  0  0  0  0
  142.1940  149.9310  132.2430 C   0  0  0  0  0  0  0  0  0  0  0  0
  141.3770  148.9220  131.7980 C   0  0  0  0  0  0  0  0  0  0  0  0
  140.0220  149.1140  131.6480 C   0  0  0  0  0  0  0  0  0  0  0  0
  139.1920  148.0950  131.1970 O   0  0  0  0  0  0  0  0  0  0  0  0
  138.7680  148.1760  129.8300 C   0  0  0  0  0  0  0  0  0  0  0  0
  139.7010  148.8530  129.0620 F   0  0  0  0  0  0  0  0  0  0  0  0
  138.6450  146.9180  129.2780 F   0  0  0  0  0  0  0  0  0  0  0  0
  137.5760  148.8510  129.7140 F   0  0  0  0  0  0  0  0  0  0  0  0
  139.5080  150.3540  131.9610 C   0  0  0  0  0  0  0  0  0  0  0  0
  140.3400  151.3610  132.4080 C   0  0  0  0  0  0  0  0  0  0  0  0
  142.1390  154.4480  133.7650 C   0  0  0  0  0  0  0  0  0  0  0  0
  141.9320  155.3930  134.7450 C   0  0  0  0  0  0  0  0  0  0  0  0
  141.6630  156.7360  134.7440 N   0  0  0  0  0  0  0  0  0  0  0  0
  141.5330  157.4970  133.5580 C   0  0  0  0  0  0  0  0  0  0  0  0
  142.2550  158.4620  133.2250 O   0  0  0  0  0  0  0  0  0  0  0  0
  140.5190  157.1880  132.6300 O   0  0  0  0  0  0  0  0  0  0  0  0
  139.1720  157.2700  133.0600 C   0  0  0  0  0  0  0  0  0  0  0  0
  138.4610  158.3060  132.5090 O   0  0  0  0  0  0  0  0  0  0  0  0
  139.4270  159.6200  132.0950 S   0  0  0  0  0  0  0  0  0  0  0  0
  140.1360  160.1970  133.3220 O   0  0  0  0  0  0  0  0  0  0  0  0
  140.5940  159.2390  130.9260 O   0  0  0  0  0  0  0  0  0  0  0  0
  139.3190  159.3080  136.7150 H   0  0  0  0  0  0  0  0  0  0  0  0
  140.4190  160.0780  135.4450 H   0  0  0  0  0  0  0  0  0  0  0  0
  141.7350  156.0838  137.9217 H   0  0  0  0  0  0  0  0  0  0  0  0
  142.2933  153.3442  137.4395 H   0  0  0  0  0  0  0  0  0  0  0  0
  142.6604  151.6820  135.6410 H   0  0  0  0  0  0  0  0  0  0  0  0
  143.5150  152.2660  132.4780 H   0  0  0  0  0  0  0  0  0  0  0  0
  143.2716  149.7357  132.3462 H   0  0  0  0  0  0  0  0  0  0  0  0
  141.8130  147.9414  131.5566 H   0  0  0  0  0  0  0  0  0  0  0  0
  138.4295  150.5422  131.8541 H   0  0  0  0  0  0  0  0  0  0  0  0
  139.8951  152.3384  132.6464 H   0  0  0  0  0  0  0  0  0  0  0  0
  142.0958  154.7598  132.7110 H   0  0  0  0  0  0  0  0  0  0  0  0
  138.6687  156.3285  132.7947 H   0  0  0  0  0  0  0  0  0  0  0  0
  139.2003  157.4519  134.1445 H   0  0  0  0  0  0  0  0  0  0  0  0
  141.3420  158.7140  131.3000 H   0  0  0  0  0  0  0  0  0  0  0  0
  1  2  1  0
  2  3  2  0
  2  4  1  0
  4  5  2  0
  5  6  1  0
  6  7  2  0
  7  8  1  0
  8  9  2  0
  9 10  1  0
 10 11  1  0
 11 12  2  0
 12 13  1  0
 13 14  2  0
 14 15  1  0
 15 16  1  0
 16 17  1  0
 16 18  1  0
 16 19  1  0
 14 20  1  0
 20 21  2  0
  9 22  1  0
 22 23  2  0
 23 24  1  0
 24 25  1  0
 25 26  2  0
 25 27  1  0
 27 28  1  0
 28 29  1  0
 30 29  1  6
 30 31  2  0
 30 32  1  0
 24  4  1  0
 23  6  1  0
 21 11  1  0
  1 33  1  0
  1 34  1  0
  5 35  1  0
  7 36  1  0
  8 37  1  0
 10 38  1  0
 12 39  1  0
 13 40  1  0
 20 41  1  0
 21 42  1  0
 22 43  1  0
 28 44  1  0
 28 45  1  0
 32 46  1  0
M  END
>  <smiles>  (38) 
NC(=O)c1cc2ccc(Nc3ccc(OC(F)(F)F)cc3)cc2n1C(=O)OCOS(=O)O

>  <score_type>  (38) 
oracle

>  <origin>  (38) 
adg

>  <m_score__min__energy>  (38) 
-8.0800000000000001

>  <m_primary>  (38) 
energy

$$$$
38:0
     RDKit          3D

 43 44  0  0  0  0  0  0  0  0999 V2000
  138.6540  158.5190  131.6950 C   0  0  0  0  0  0  0  0  0  0  0  0
  139.6110  158.1140  132.7180 N   0  0  0  0  0  0  0  0  0  0  0  0
  139.1060  157.2300  133.7550 C   0  0  0  0  0  0  0  0  0  0  0  0
  139.1870  157.8600  135.1350 C   0  0  0  0  0  0  0  0  0  0  0  0
  140.5270  157.8820  135.5690 O   0  0  0  0  0  0  0  0  0  0  0  0
  140.9650  158.5490  132.7190 C   0  0  0  0  0  0  0  0  0  0  0  0
  141.2050  159.7740  132.8660 O   0  0  0  0  0  0  0  0  0  0  0  0
  142.0080  157.5140  132.5450 C   0  0  0  0  0  0  0  0  0  0  0  0
  142.7630  157.3110  133.7190 O   0  0  0  0  0  0  0  0  0  0  0  0
  143.4720  158.3240  134.3080 C   0  0  0  0  0  0  0  0  0  0  0  0
  142.9160  158.8450  135.3400 O   0  0  0  0  0  0  0  0  0  0  0  0
  144.7220  158.8250  133.8860 N   0  0  0  0  0  0  0  0  0  0  0  0
  145.0490  160.0990  133.6670 C   0  0  0  0  0  0  0  0  0  0  0  0
  144.2800  161.3210  133.7830 C   0  0  0  0  0  0  0  0  0  0  0  0
  142.8350  161.2670  133.7380 N   0  0  0  0  0  0  0  0  0  0  0  0
  144.7490  162.4720  133.9240 O   0  0  0  0  0  0  0  0  0  0  0  0
  146.3930  160.1160  133.2640 C   0  0  0  0  0  0  0  0  0  0  0  0
  146.8620  158.8250  133.2450 C   0  0  0  0  0  0  0  0  0  0  0  0
  148.1110  158.3120  132.9190 C   0  0  0  0  0  0  0  0  0  0  0  0
  148.3160  156.9490  132.9860 C   0  0  0  0  0  0  0  0  0  0  0  0
  147.2920  156.1400  133.3700 C   0  0  0  0  0  0  0  0  0  0  0  0
  147.5120  154.6790  133.4430 C   0  0  0  0  0  0  0  0  0  0  0  0
  148.7540  154.2880  133.0040 F   0  0  0  0  0  0  0  0  0  0  0  0
  147.3660  154.2750  134.7730 F   0  0  0  0  0  0  0  0  0  0  0  0
  146.0440  156.6750  133.6940 C   0  0  0  0  0  0  0  0  0  0  0  0
  145.8070  158.0410  133.6360 C   0  0  0  0  0  0  0  0  0  0  0  0
  137.7433  158.9044  132.1768 H   0  0  0  0  0  0  0  0  0  0  0  0
  139.0984  159.3062  131.0682 H   0  0  0  0  0  0  0  0  0  0  0  0
  138.3983  157.6519  131.0682 H   0  0  0  0  0  0  0  0  0  0  0  0
  138.0549  156.9908  133.5358 H   0  0  0  0  0  0  0  0  0  0  0  0
  139.7298  156.3240  133.7600 H   0  0  0  0  0  0  0  0  0  0  0  0
  138.8001  158.8888  135.0906 H   0  0  0  0  0  0  0  0  0  0  0  0
  138.5851  157.2691  135.8411 H   0  0  0  0  0  0  0  0  0  0  0  0
  141.0870  158.1720  134.8230 H   0  0  0  0  0  0  0  0  0  0  0  0
  141.5230  156.5663  132.2682 H   0  0  0  0  0  0  0  0  0  0  0  0
  142.6956  157.8586  131.7586 H   0  0  0  0  0  0  0  0  0  0  0  0
  142.3590  161.7260  132.9300 H   0  0  0  0  0  0  0  0  0  0  0  0
  142.3200  160.7750  134.5080 H   0  0  0  0  0  0  0  0  0  0  0  0
  146.9742  161.0136  133.0062 H   0  0  0  0  0  0  0  0  0  0  0  0
  148.9261  158.9835  132.6114 H   0  0  0  0  0  0  0  0  0  0  0  0
  149.2970  156.5213  132.7316 H   0  0  0  0  0  0  0  0  0  0  0  0
  146.7716  154.2079  132.7798 H   0  0  0  0  0  0  0  0  0  0  0  0
  145.2318  155.9999  134.0016 H   0  0  0  0  0  0  0  0  0  0  0  0
  1  2  1  0
  2  3  1  0
  3  4  1  0
  4  5  1  0
  2  6  1  0
  6  7  2  0
  6  8  1  0
  8  9  1  0
  9 10  1  0
 10 11  2  0
 10 12  1  0
 12 13  1  0
 13 14  1  0
 14 15  1  0
 14 16  2  0
 13 17  2  0
 17 18  1  0
 18 19  2  0
 19 20  1  0
 20 21  2  0
 21 22  1  0
 22 23  1  0
 22 24  1  0
 21 25  1  0
 25 26  2  0
 26 12  1  0
 26 18  1  0
  1 27  1  0
  1 28  1  0
  1 29  1  0
  3 30  1  0
  3 31  1  0
  4 32  1  0
  4 33  1  0
  5 34  1  0
  8 35  1  0
  8 36  1  0
 15 37  1  0
 15 38  1  0
 17 39  1  0
 19 40  1  0
 20 41  1  0
 22 42  1  0
 25 43  1  0
M  END
>  <smiles>  (39) 
CN(CCO)C(=O)COC(=O)n1c(C(N)=O)cc2ccc(C(F)F)cc21

>  <score_type>  (39) 
oracle

>  <origin>  (39) 
adg

>  <m_score__min__energy>  (39) 
-6.7599999999999998

>  <m_primary>  (39) 
energy

$$$$
39:0
     RDKit          3D

 44 45  0  0  0  0  0  0  0  0999 V2000
  140.5270  156.9570  133.4230 C   0  0  0  0  0  0  0  0  0  0  0  0
  140.8640  158.2510  133.5350 C   0  0  0  0  0  0  0  0  0  0  0  0
  141.7870  158.6760  134.5360 N   0  0  0  0  0  0  0  0  0  0  0  0
  143.1070  159.1030  134.1370 C   0  0  0  0  0  0  0  0  0  0  0  0
  143.3110  160.4640  134.0950 C   0  0  0  0  0  0  0  0  0  0  0  0
  144.5690  160.8930  133.7250 C   0  0  0  0  0  0  0  0  0  0  0  0
  145.5660  159.9950  133.4140 C   0  0  0  0  0  0  0  0  0  0  0  0
  146.8480  160.1980  133.0330 C   0  0  0  0  0  0  0  0  0  0  0  0
  147.4270  158.9340  132.8430 C   0  0  0  0  0  0  0  0  0  0  0  0
  148.8070  158.7920  132.4260 C   0  0  0  0  0  0  0  0  0  0  0  0
  149.4100  157.4860  132.3030 N   0  0  0  0  0  0  0  0  0  0  0  0
  149.5830  159.7410  132.1440 O   0  0  0  0  0  0  0  0  0  0  0  0
  146.5210  157.9980  133.1030 N   0  0  0  0  0  0  0  0  0  0  0  0
  146.6240  156.5900  133.0550 C   0  0  0  0  0  0  0  0  0  0  0  0
  145.6730  155.8850  132.6080 O   0  0  0  0  0  0  0  0  0  0  0  0
  147.7330  155.8610  133.4750 O   0  0  0  0  0  0  0  0  0  0  0  0
  147.7750  154.4340  133.2960 C   0  0  0  0  0  0  0  0  0  0  0  0
  149.0850  154.1600  132.5930 C   0  0  0  0  0  0  0  0  0  0  0  0
  149.2940  152.4120  132.3830 Cl  0  0  0  0  0  0  0  0  0  0  0  0
  145.3700  158.6340  133.4550 C   0  0  0  0  0  0  0  0  0  0  0  0
  144.1050  158.2030  133.8260 C   0  0  0  0  0  0  0  0  0  0  0  0
  140.3250  159.2530  132.6330 C   0  0  0  0  0  0  0  0  0  0  0  0
  140.3610  160.4860  132.8680 O   0  0  0  0  0  0  0  0  0  0  0  0
  139.7460  158.8140  131.4550 O   0  0  0  0  0  0  0  0  0  0  0  0
  138.3550  158.7000  131.2300 C   0  0  0  0  0  0  0  0  0  0  0  0
  137.9180  160.1000  130.7710 C   0  0  0  0  0  0  0  0  0  0  0  0
  139.8142  156.6394  132.6477 H   0  0  0  0  0  0  0  0  0  0  0  0
  140.9635  156.2138  134.1065 H   0  0  0  0  0  0  0  0  0  0  0  0
  141.5310  158.6820  135.5340 H   0  0  0  0  0  0  0  0  0  0  0  0
  142.5096  161.1750  134.3444 H   0  0  0  0  0  0  0  0  0  0  0  0
  144.7796  161.9716  133.6775 H   0  0  0  0  0  0  0  0  0  0  0  0
  147.3433  161.1708  132.8976 H   0  0  0  0  0  0  0  0  0  0  0  0
  149.6050  156.9070  133.1490 H   0  0  0  0  0  0  0  0  0  0  0  0
  149.6670  157.0850  131.3720 H   0  0  0  0  0  0  0  0  0  0  0  0
  147.7453  153.9223  134.2693 H   0  0  0  0  0  0  0  0  0  0  0  0
  146.9141  154.0671  132.7179 H   0  0  0  0  0  0  0  0  0  0  0  0
  149.0809  154.6491  131.6077 H   0  0  0  0  0  0  0  0  0  0  0  0
  149.9138  154.5566  133.1979 H   0  0  0  0  0  0  0  0  0  0  0  0
  143.8939  157.1245  133.8731 H   0  0  0  0  0  0  0  0  0  0  0  0
  138.1483  157.9536  130.4489 H   0  0  0  0  0  0  0  0  0  0  0  0
  137.8138  158.3689  132.1286 H   0  0  0  0  0  0  0  0  0  0  0  0
  137.7214  160.7297  131.6512 H   0  0  0  0  0  0  0  0  0  0  0  0
  138.7172  160.5538  130.1666 H   0  0  0  0  0  0  0  0  0  0  0  0
  137.0025  160.0186  130.1666 H   0  0  0  0  0  0  0  0  0  0  0  0
  1  2  2  0
  2  3  1  0
  3  4  1  0
  4  5  2  0
  5  6  1  0
  6  7  2  0
  7  8  1  0
  8  9  2  0
  9 10  1  0
 10 11  1  0
 10 12  2  0
  9 13  1  0
 13 14  1  0
 14 15  2  0
 14 16  1  0
 16 17  1  0
 17 18  1  0
 18 19  1  0
 13 20  1  0
 20 21  2  0
  2 22  1  0
 22 23  2  0
 22 24  1  0
 24 25  1  0
 25 26  1  0
 21  4  1  0
 20  7  1  0
  1 27  1  0
  1 28  1  0
  3 29  1  0
  5 30  1  0
  6 31  1  0
  8 32  1  0
 11 33  1  0
 11 34  1  0
 17 35  1  0
 17 36  1  0
 18 37  1  0
 18 38  1  0
 21 39  1  0
 25 40  1  0
 25 41  1  0
 26 42  1  0
 26 43  1  0
 26 44  1  0
M  END
>  <smiles>  (40) 
C=C(Nc1ccc2cc(C(N)=O)n(C(=O)OCCCl)c2c1)C(=O)OCC

>  <score_type>  (40) 
oracle

>  <origin>  (40) 
adg

>  <m_score__min__energy>  (40) 
-7.75

>  <m_primary>  (40) 
energy

$$$$
40:0
     RDKit          3D

 42 43  0  0  0  0  0  0  0  0999 V2000
  139.3690  157.0700  132.6130 C   0  0  0  0  0  0  0  0  0  0  0  0
  140.0600  157.9120  133.6130 N   0  0  0  0  0  0  0  0  0  0  0  0
  139.4490  158.0230  134.8850 C   0  0  0  0  0  0  0  0  0  0  0  0
  140.3470  158.4810  136.0030 C   0  0  0  0  0  0  0  0  0  0  0  0
  140.9510  159.6780  135.7390 O   0  0  0  0  0  0  0  0  0  0  0  0
  141.2720  158.4920  133.1730 C   0  0  0  0  0  0  0  0  0  0  0  0
  141.2200  159.7350  132.9100 O   0  0  0  0  0  0  0  0  0  0  0  0
  142.5520  157.7090  133.0240 C   0  0  0  0  0  0  0  0  0  0  0  0
  143.5570  158.2460  133.9360 C   0  0  0  0  0  0  0  0  0  0  0  0
  143.2380  158.1330  135.1790 O   0  0  0  0  0  0  0  0  0  0  0  0
  144.7920  158.8540  133.6640 N   0  0  0  0  0  0  0  0  0  0  0  0
  145.1320  160.1650  133.5830 C   0  0  0  0  0  0  0  0  0  0  0  0
  144.3510  161.3590  133.7520 C   0  0  0  0  0  0  0  0  0  0  0  0
  142.8980  161.2330  133.7650 N   0  0  0  0  0  0  0  0  0  0  0  0
  144.7260  162.5330  133.8960 O   0  0  0  0  0  0  0  0  0  0  0  0
  146.5070  160.2360  133.2790 C   0  0  0  0  0  0  0  0  0  0  0  0
  146.9890  158.9650  133.1800 C   0  0  0  0  0  0  0  0  0  0  0  0
  148.2490  158.5130  132.9060 C   0  0  0  0  0  0  0  0  0  0  0  0
  148.5260  157.1660  132.8510 C   0  0  0  0  0  0  0  0  0  0  0  0
  147.4930  156.2970  133.0840 C   0  0  0  0  0  0  0  0  0  0  0  0
  147.7680  154.8330  133.0300 C   0  0  0  0  0  0  0  0  0  0  0  0
  147.2320  154.2620  134.1800 F   0  0  0  0  0  0  0  0  0  0  0  0
  146.2130  156.7700  133.3630 C   0  0  0  0  0  0  0  0  0  0  0  0
  145.9300  158.1310  133.4170 C   0  0  0  0  0  0  0  0  0  0  0  0
  138.7527  156.3190  133.1290 H   0  0  0  0  0  0  0  0  0  0  0  0
  138.7258  157.7021  131.9831 H   0  0  0  0  0  0  0  0  0  0  0  0
  140.1144  156.5625  131.9831 H   0  0  0  0  0  0  0  0  0  0  0  0
  138.6209  158.7421  134.8005 H   0  0  0  0  0  0  0  0  0  0  0  0
  139.1304  157.0052  135.1543 H   0  0  0  0  0  0  0  0  0  0  0  0
  139.7448  158.5851  136.9176 H   0  0  0  0  0  0  0  0  0  0  0  0
  141.1402  157.7281  136.1210 H   0  0  0  0  0  0  0  0  0  0  0  0
  141.6470  159.5590  135.0500 H   0  0  0  0  0  0  0  0  0  0  0  0
  142.3657  156.6518  133.2642 H   0  0  0  0  0  0  0  0  0  0  0  0
  142.9143  157.7902  131.9885 H   0  0  0  0  0  0  0  0  0  0  0  0
  142.3630  161.7500  133.0460 H   0  0  0  0  0  0  0  0  0  0  0  0
  142.4390  160.6320  134.4920 H   0  0  0  0  0  0  0  0  0  0  0  0
  147.0905  161.1588  133.1448 H   0  0  0  0  0  0  0  0  0  0  0  0
  149.0561  159.2384  132.7262 H   0  0  0  0  0  0  0  0  0  0  0  0
  149.5394  156.8007  132.6282 H   0  0  0  0  0  0  0  0  0  0  0  0
  147.2954  154.3951  132.1384 H   0  0  0  0  0  0  0  0  0  0  0  0
  148.8503  154.6449  132.9734 H   0  0  0  0  0  0  0  0  0  0  0  0
  145.4038  156.0477  133.5456 H   0  0  0  0  0  0  0  0  0  0  0  0
  1  2  1  0
  2  3  1  0
  3  4  1  0
  4  5  1  0
  2  6  1  0
  6  7  2  0
  6  8  1  0
  8  9  1  0
  9 10  2  0
  9 11  1  0
 11 12  1  0
 12 13  1  0
 13 14  1  0
 13 15  2  0
 12 16  2  0
 16 17  1  0
 17 18  2  0
 18 19  1  0
 19 20  2  0
 20 21  1  0
 21 22  1  0
 20 23  1  0
 23 24  2  0
 24 11  1  0
 24 17  1  0
  1 25  1  0
  1 26  1  0
  1 27  1  0
  3 28  1  0
  3 29  1  0
  4 30  1  0
  4 31  1  0
  5 32  1  0
  8 33  1  0
  8 34  1  0
 14 35  1  0
 14 36  1  0
 16 37  1  0
 18 38  1  0
 19 39  1  0
 21 40  1  0
 21 41  1  0
 23 42  1  0
M  END
>  <smiles>  (41) 
CN(CCO)C(=O)CC(=O)n1c(C(N)=O)cc2ccc(CF)cc21

>  <score_type>  (41) 
oracle

>  <origin>  (41) 
adg

>  <m_score__min__energy>  (41) 
-6.4800000000000004

>  <m_primary>  (41) 
energy

$$$$
41:0
     RDKit          3D

 46 48  0  0  0  0  0  0  0  0999 V2000
  149.1080  161.5280  130.7470 C   0  0  0  0  0  0  0  0  0  0  0  0
  148.6250  160.1420  131.1240 C   0  0  0  0  0  0  0  0  0  0  0  0
  147.3590  160.0690  131.6320 O   0  0  0  0  0  0  0  0  0  0  0  0
  147.2280  160.3600  132.9590 C   0  0  0  0  0  0  0  0  0  0  0  0
  146.4970  159.2850  133.5690 O   0  0  0  0  0  0  0  0  0  0  0  0
  145.1290  159.1410  133.3620 C   0  0  0  0  0  0  0  0  0  0  0  0
  144.4970  160.2130  133.1860 O   0  0  0  0  0  0  0  0  0  0  0  0
  144.5410  157.8510  133.3610 N   0  0  0  0  0  0  0  0  0  0  0  0
  145.1870  156.6680  133.3450 C   0  0  0  0  0  0  0  0  0  0  0  0
  146.5830  156.3460  133.3250 C   0  0  0  0  0  0  0  0  0  0  0  0
  147.4320  156.9460  132.3240 N   0  0  0  0  0  0  0  0  0  0  0  0
  147.1810  155.5680  134.1090 O   0  0  0  0  0  0  0  0  0  0  0  0
  144.1870  155.6850  133.3500 C   0  0  0  0  0  0  0  0  0  0  0  0
  142.9480  156.2790  133.3700 C   0  0  0  0  0  0  0  0  0  0  0  0
  141.6720  155.7430  133.3830 C   0  0  0  0  0  0  0  0  0  0  0  0
  140.5870  156.5930  133.4020 C   0  0  0  0  0  0  0  0  0  0  0  0
  140.7850  157.9570  133.4090 C   0  0  0  0  0  0  0  0  0  0  0  0
  139.5970  158.8500  133.4300 C   0  0  0  0  0  0  0  0  0  0  0  0
  139.2040  159.5350  131.8050 P   0  0  0  0  0  0  0  0  0  0  0  0
  137.8220  159.0260  131.4400 O   0  0  0  0  0  0  0  0  0  0  0  0
  139.1270  161.2120  131.8270 O   0  0  0  0  0  0  0  0  0  0  0  0
  140.2630  159.0090  130.6220 O   0  0  0  0  0  0  0  0  0  0  0  0
  142.0840  158.4590  133.3960 C   0  0  0  0  0  0  0  0  0  0  0  0
  143.1930  157.6360  133.3770 C   0  0  0  0  0  0  0  0  0  0  0  0
  149.6070  159.4340  132.0380 C   0  0  0  0  0  0  0  0  0  0  0  0
  149.2930  158.2570  131.3460 O   0  0  0  0  0  0  0  0  0  0  0  0
  149.1150  159.0550  130.2310 C   0  0  0  0  0  0  0  0  0  0  0  0
  149.3098  162.1070  131.6603 H   0  0  0  0  0  0  0  0  0  0  0  0
  150.0305  161.4460  130.1535 H   0  0  0  0  0  0  0  0  0  0  0  0
  148.3343  162.0371  130.1535 H   0  0  0  0  0  0  0  0  0  0  0  0
  148.2212  160.4492  133.4233 H   0  0  0  0  0  0  0  0  0  0  0  0
  146.6974  161.3140  133.0948 H   0  0  0  0  0  0  0  0  0  0  0  0
  147.2640  157.9570  132.0570 H   0  0  0  0  0  0  0  0  0  0  0  0
  148.2040  156.4070  131.8620 H   0  0  0  0  0  0  0  0  0  0  0  0
  144.3675  154.6000  133.3395 H   0  0  0  0  0  0  0  0  0  0  0  0
  141.5256  154.6528  133.3782 H   0  0  0  0  0  0  0  0  0  0  0  0
  139.5660  156.1839  133.4115 H   0  0  0  0  0  0  0  0  0  0  0  0
  138.7308  158.2735  133.7868 H   0  0  0  0  0  0  0  0  0  0  0  0
  139.8297  159.6936  134.0965 H   0  0  0  0  0  0  0  0  0  0  0  0
  138.1930  161.5430  131.8430 H   0  0  0  0  0  0  0  0  0  0  0  0
  141.1980  159.0100  130.9940 H   0  0  0  0  0  0  0  0  0  0  0  0
  142.2319  159.5490  133.4010 H   0  0  0  0  0  0  0  0  0  0  0  0
  150.6514  159.7637  131.9352 H   0  0  0  0  0  0  0  0  0  0  0  0
  149.5352  159.5018  133.1336 H   0  0  0  0  0  0  0  0  0  0  0  0
  150.0434  159.2948  129.6920 H   0  0  0  0  0  0  0  0  0  0  0  0
  148.5144  158.7094  129.3767 H   0  0  0  0  0  0  0  0  0  0  0  0
  1  2  1  0
  2  3  1  0
  3  4  1  0
  4  5  1  0
  5  6  1  0
  6  7  2  0
  6  8  1  0
  8  9  1  0
  9 10  1  0
 10 11  1  0
 10 12  2  0
  9 13  2  0
 13 14  1  0
 14 15  2  0
 15 16  1  0
 16 17  2  0
 17 18  1  0
 18 19  1  0
 19 20  2  0
 19 21  1  0
 19 22  1  0
 17 23  1  0
 23 24  2  0
  2 25  1  0
 25 26  1  0
 26 27  1  0
 27  2  1  0
 24  8  1  0
 24 14  1  0
  1 28  1  0
  1 29  1  0
  1 30  1  0
  4 31  1  0
  4 32  1  0
 11 33  1  0
 11 34  1  0
 13 35  1  0
 15 36  1  0
 16 37  1  0
 18 38  1  0
 18 39  1  0
 21 40  1  0
 22 41  1  0
 23 42  1  0
 25 43  1  0
 25 44  1  0
 27 45  1  0
 27 46  1  0
M  END
>  <smiles>  (42) 
CC1(OCOC(=O)n2c(C(N)=O)cc3ccc(CP(=O)(O)O)cc32)COC1

>  <score_type>  (42) 
oracle

>  <origin>  (42) 
adg

>  <m_score__min__energy>  (42) 
-7.8099999999999996

>  <m_primary>  (42) 
energy

$$$$
42:0
     RDKit          3D

 40 41  0  0  0  0  0  0  0  0999 V2000
  144.4420  155.5630  134.7960 C   0  0  0  0  0  0  0  0  0  0  0  0
  145.7420  155.7480  134.1960 N   0  0  0  0  0  0  0  0  0  0  0  0
  146.7390  154.7630  134.6760 C   0  0  0  0  0  0  0  0  0  0  0  0
  147.1130  153.7300  133.6990 C   0  0  0  0  0  0  0  0  0  0  0  0
  148.5350  153.6940  133.2340 C   0  0  0  0  0  0  0  0  0  0  0  0
  148.7520  154.6030  132.2290 O   0  0  0  0  0  0  0  0  0  0  0  0
  146.1780  156.6540  133.2410 C   0  0  0  0  0  0  0  0  0  0  0  0
  146.6010  156.0660  132.1360 O   0  0  0  0  0  0  0  0  0  0  0  0
  146.2600  158.0520  133.1780 N   0  0  0  0  0  0  0  0  0  0  0  0
  147.2750  158.9140  133.1130 C   0  0  0  0  0  0  0  0  0  0  0  0
  148.6570  158.6990  132.6950 C   0  0  0  0  0  0  0  0  0  0  0  0
  149.1210  157.3500  132.4540 N   0  0  0  0  0  0  0  0  0  0  0  0
  149.5090  159.5910  132.5200 O   0  0  0  0  0  0  0  0  0  0  0  0
  146.8390  160.2340  133.3200 C   0  0  0  0  0  0  0  0  0  0  0  0
  145.4950  160.1530  133.5110 C   0  0  0  0  0  0  0  0  0  0  0  0
  144.5950  161.1840  133.7560 C   0  0  0  0  0  0  0  0  0  0  0  0
  143.2770  160.8750  133.9220 C   0  0  0  0  0  0  0  0  0  0  0  0
  142.8910  159.5750  133.8420 C   0  0  0  0  0  0  0  0  0  0  0  0
  141.4480  159.2610  134.0260 C   0  0  0  0  0  0  0  0  0  0  0  0
  140.6510  160.0770  133.2450 F   0  0  0  0  0  0  0  0  0  0  0  0
  141.1400  159.5410  135.3520 F   0  0  0  0  0  0  0  0  0  0  0  0
  143.8000  158.5550  133.5980 C   0  0  0  0  0  0  0  0  0  0  0  0
  145.1540  158.8420  133.4240 C   0  0  0  0  0  0  0  0  0  0  0  0
  144.5386  155.5767  135.8917 H   0  0  0  0  0  0  0  0  0  0  0  0
  143.7719  156.3748  134.4768 H   0  0  0  0  0  0  0  0  0  0  0  0
  144.0250  154.5965  134.4768 H   0  0  0  0  0  0  0  0  0  0  0  0
  147.6501  155.3103  134.9594 H   0  0  0  0  0  0  0  0  0  0  0  0
  146.2675  154.2338  135.5172 H   0  0  0  0  0  0  0  0  0  0  0  0
  146.8911  152.7529  134.1529 H   0  0  0  0  0  0  0  0  0  0  0  0
  146.5322  153.9765  132.7979 H   0  0  0  0  0  0  0  0  0  0  0  0
  149.1955  153.9312  134.0810 H   0  0  0  0  0  0  0  0  0  0  0  0
  148.7488  152.6875  132.8452 H   0  0  0  0  0  0  0  0  0  0  0  0
  148.0160  154.5570  131.5600 H   0  0  0  0  0  0  0  0  0  0  0  0
  148.6230  156.7130  131.7990 H   0  0  0  0  0  0  0  0  0  0  0  0
  149.9800  157.1000  132.9890 H   0  0  0  0  0  0  0  0  0  0  0  0
  147.4569  161.1440  133.3262 H   0  0  0  0  0  0  0  0  0  0  0  0
  144.9388  162.2273  133.8147 H   0  0  0  0  0  0  0  0  0  0  0  0
  142.5381  161.6661  134.1176 H   0  0  0  0  0  0  0  0  0  0  0  0
  141.2686  158.2119  133.7482 H   0  0  0  0  0  0  0  0  0  0  0  0
  143.4505  157.5135  133.5415 H   0  0  0  0  0  0  0  0  0  0  0  0
  1  2  1  0
  2  3  1  0
  3  4  1  0
  4  5  1  0
  5  6  1  0
  2  7  1  0
  7  8  2  0
  7  9  1  0
  9 10  1  0
 10 11  1  0
 11 12  1  0
 11 13  2  0
 10 14  2  0
 14 15  1  0
 15 16  2  0
 16 17  1  0
 17 18  2  0
 18 19  1  0
 19 20  1  0
 19 21  1  0
 18 22  1  0
 22 23  2  0
 23  9  1  0
 23 15  1  0
  1 24  1  0
  1 25  1  0
  1 26  1  0
  3 27  1  0
  3 28  1  0
  4 29  1  0
  4 30  1  0
  5 31  1  0
  5 32  1  0
  6 33  1  0
 12 34  1  0
 12 35  1  0
 14 36  1  0
 16 37  1  0
 17 38  1  0
 19 39  1  0
 22 40  1  0
M  END
>  <smiles>  (43) 
CN(CCCO)C(=O)n1c(C(N)=O)cc2ccc(C(F)F)cc21

>  <score_type>  (43) 
oracle

>  <origin>  (43) 
adg

>  <m_score__min__energy>  (43) 
-6.4199999999999999

>  <m_primary>  (43) 
energy

$$$$
44:0
     RDKit          3D

 40 41  0  0  0  0  0  0  0  0999 V2000
  146.0950  152.9990  133.1600 C   0  0  0  0  0  0  0  0  0  0  0  0
  147.2530  153.5260  133.8560 N   0  0  0  0  0  0  0  0  0  0  0  0
  147.1600  153.9690  135.2360 C   0  0  0  0  0  0  0  0  0  0  0  0
  147.1300  155.4810  135.1900 C   0  0  0  0  0  0  0  0  0  0  0  0
  145.9870  155.8950  134.4640 O   0  0  0  0  0  0  0  0  0  0  0  0
  146.2670  156.6300  133.2910 C   0  0  0  0  0  0  0  0  0  0  0  0
  146.4900  155.9280  132.2820 O   0  0  0  0  0  0  0  0  0  0  0  0
  146.2760  158.0450  133.3300 N   0  0  0  0  0  0  0  0  0  0  0  0
  147.3350  158.8390  133.1360 C   0  0  0  0  0  0  0  0  0  0  0  0
  148.7170  158.5450  132.8430 C   0  0  0  0  0  0  0  0  0  0  0  0
  149.1080  157.1880  132.5360 N   0  0  0  0  0  0  0  0  0  0  0  0
  149.6590  159.3700  132.8220 O   0  0  0  0  0  0  0  0  0  0  0  0
  146.8700  160.1550  133.2680 C   0  0  0  0  0  0  0  0  0  0  0  0
  145.5240  160.1430  133.5450 C   0  0  0  0  0  0  0  0  0  0  0  0
  144.6170  161.1590  133.7600 C   0  0  0  0  0  0  0  0  0  0  0  0
  143.3000  160.8460  134.0210 C   0  0  0  0  0  0  0  0  0  0  0  0
  142.9160  159.5370  134.0630 C   0  0  0  0  0  0  0  0  0  0  0  0
  141.4970  159.1940  134.3450 C   0  0  0  0  0  0  0  0  0  0  0  0
  141.2610  157.8420  134.3170 F   0  0  0  0  0  0  0  0  0  0  0  0
  140.6460  159.7970  133.4370 F   0  0  0  0  0  0  0  0  0  0  0  0
  141.1630  159.6500  135.6170 F   0  0  0  0  0  0  0  0  0  0  0  0
  143.8460  158.5350  133.8440 C   0  0  0  0  0  0  0  0  0  0  0  0
  145.1760  158.8020  133.5780 C   0  0  0  0  0  0  0  0  0  0  0  0
  148.4740  153.5900  133.1280 C   0  0  0  0  0  0  0  0  0  0  0  0
  149.3150  152.6800  133.3090 O   0  0  0  0  0  0  0  0  0  0  0  0
  148.7750  154.6090  132.2330 O   0  0  0  0  0  0  0  0  0  0  0  0
  145.3492  152.6596  133.8939 H   0  0  0  0  0  0  0  0  0  0  0  0
  145.6567  153.7863  132.5291 H   0  0  0  0  0  0  0  0  0  0  0  0
  146.4008  152.1514  132.5291 H   0  0  0  0  0  0  0  0  0  0  0  0
  146.2404  153.5828  135.6998 H   0  0  0  0  0  0  0  0  0  0  0  0
  148.0071  153.6018  135.8340 H   0  0  0  0  0  0  0  0  0  0  0  0
  147.0820  155.8807  136.2137 H   0  0  0  0  0  0  0  0  0  0  0  0
  148.0398  155.8571  134.6992 H   0  0  0  0  0  0  0  0  0  0  0  0
  149.9560  156.7550  132.9680 H   0  0  0  0  0  0  0  0  0  0  0  0
  148.4910  156.6800  131.8630 H   0  0  0  0  0  0  0  0  0  0  0  0
  147.4881  161.0591  133.1655 H   0  0  0  0  0  0  0  0  0  0  0  0
  144.9412  162.2095  133.7236 H   0  0  0  0  0  0  0  0  0  0  0  0
  142.5643  161.6452  134.1941 H   0  0  0  0  0  0  0  0  0  0  0  0
  143.5141  157.4870  133.8831 H   0  0  0  0  0  0  0  0  0  0  0  0
  148.1380  154.8220  131.4640 H   0  0  0  0  0  0  0  0  0  0  0  0
  1  2  1  0
  2  3  1  0
  3  4  1  0
  4  5  1  0
  5  6  1  0
  6  7  2  0
  6  8  1  0
  8  9  1  0
  9 10  1  0
 10 11  1  0
 10 12  2  0
  9 13  2  0
 13 14  1  0
 14 15  2  0
 15 16  1  0
 16 17  2  0
 17 18  1  0
 18 19  1  0
 18 20  1  0
 18 21  1  0
 17 22  1  0
 22 23  2  0
  2 24  1  0
 24 25  2  0
 24 26  1  0
 23  8  1  0
 23 14  1  0
  1 27  1  0
  1 28  1  0
  1 29  1  0
  3 30  1  0
  3 31  1  0
  4 32  1  0
  4 33  1  0
 11 34  1  0
 11 35  1  0
 13 36  1  0
 15 37  1  0
 16 38  1  0
 22 39  1  0
 26 40  1  0
M  END
>  <smiles>  (44) 
CN(CCOC(=O)n1c(C(N)=O)cc2ccc(C(F)(F)F)cc21)C(=O)O

>  <score_type>  (44) 
oracle

>  <origin>  (44) 
adg

>  <m_score__min__energy>  (44) 
-5.9400000000000004

>  <m_primary>  (44) 
energy

$$$$
45:0
     RDKit          3D

 42 43  0  0  1  0  0  0  0  0999 V2000
  141.4200  156.6250  140.9740 C   0  0  0  0  0  0  0  0  0  0  0  0
  141.5620  155.8780  139.6750 C   0  0  0  0  0  0  0  0  0  0  0  0
  141.9610  154.5610  139.7250 C   0  0  0  0  0  0  0  0  0  0  0  0
  142.0890  153.8840  138.5330 C   0  0  0  0  0  0  0  0  0  0  0  0
  141.8170  154.5410  137.3520 C   0  0  0  0  0  0  0  0  0  0  0  0
  141.8800  154.0600  136.0720 C   0  0  0  0  0  0  0  0  0  0  0  0
  141.5160  155.1090  135.2690 C   0  0  0  0  0  0  0  0  0  0  0  0
  141.5950  154.9970  133.7950 C   0  0  0  0  0  0  0  0  0  0  0  0
  142.3110  155.9430  133.0140 N   0  0  0  0  0  0  0  0  0  0  0  0
  141.0330  154.0640  133.1650 O   0  0  0  0  0  0  0  0  0  0  0  0
  141.2200  156.2160  135.9510 N   0  0  0  0  0  0  0  0  0  0  0  0
  140.6300  157.4350  135.6290 C   0  0  0  0  0  0  0  0  0  0  0  0
  139.7370  157.8170  136.5560 O   0  0  0  0  0  0  0  0  0  0  0  0
  140.6950  158.3740  134.6230 N   0  0  0  0  0  0  0  0  0  0  0  0
  142.0340  159.1390  134.7040 C   0  0  0  0  0  0  0  0  0  0  0  0
  143.0650  158.3340  134.0020 C   0  0  0  0  0  0  0  0  0  0  0  0
  143.9240  157.6810  134.6750 O   0  0  0  0  0  0  0  0  0  0  0  0
  143.1480  158.2490  132.6180 O   0  0  0  0  0  0  0  0  0  0  0  0
  139.8210  158.9890  133.7060 C   0  0  2  0  0  0  0  0  0  0  0  0
  138.5770  157.8850  133.6510 C   0  0  0  0  0  0  0  0  0  0  0  0
  140.0240  159.2070  132.3090 C   0  0  0  0  0  0  0  0  0  0  0  0
  139.5890  160.1330  131.5850 O   0  0  0  0  0  0  0  0  0  0  0  0
  140.8250  158.2610  131.6070 O   0  0  0  0  0  0  0  0  0  0  0  0
  141.4200  155.8470  137.2680 C   0  0  0  0  0  0  0  0  0  0  0  0
  141.2900  156.5300  138.4680 C   0  0  0  0  0  0  0  0  0  0  0  0
  141.5526  155.9277  141.8143 H   0  0  0  0  0  0  0  0  0  0  0  0
  142.1842  157.4143  141.0285 H   0  0  0  0  0  0  0  0  0  0  0  0
  140.4195  157.0789  141.0285 H   0  0  0  0  0  0  0  0  0  0  0  0
  142.1704  154.0665  140.6850 H   0  0  0  0  0  0  0  0  0  0  0  0
  142.4049  152.8304  138.5231 H   0  0  0  0  0  0  0  0  0  0  0  0
  142.1631  153.0454  135.7549 H   0  0  0  0  0  0  0  0  0  0  0  0
  143.3150  156.1570  133.2130 H   0  0  0  0  0  0  0  0  0  0  0  0
  141.7730  156.4030  132.2370 H   0  0  0  0  0  0  0  0  0  0  0  0
  141.9329  160.1211  134.2189 H   0  0  0  0  0  0  0  0  0  0  0  0
  142.3214  159.2964  135.7540 H   0  0  0  0  0  0  0  0  0  0  0  0
  142.4810  158.8070  132.0750 H   0  0  0  0  0  0  0  0  0  0  0  0
  139.8045  160.0172  134.0965 H   0  0  0  0  0  0  0  0  0  0  0  0
  138.2773  157.6190  134.6754 H   0  0  0  0  0  0  0  0  0  0  0  0
  137.7196  158.3249  133.1206 H   0  0  0  0  0  0  0  0  0  0  0  0
  138.9119  156.9814  133.1206 H   0  0  0  0  0  0  0  0  0  0  0  0
  141.6260  158.5790  131.0800 H   0  0  0  0  0  0  0  0  0  0  0  0
  140.9733  157.5834  138.4704 H   0  0  0  0  0  0  0  0  0  0  0  0
  1  2  1  0
  2  3  2  0
  3  4  1  0
  4  5  2  0
  5  6  1  0
  6  7  2  0
  7  8  1  0
  8  9  1  0
  8 10  2  0
  7 11  1  0
 11 12  1  0
 12 13  2  0
 12 14  1  0
 14 15  1  0
 15 16  1  0
 16 17  2  0
 16 18  1  0
 14 19  1  0
 19 20  1  0
 19 21  1  0
 21 22  2  0
 21 23  1  0
 11 24  1  0
 24 25  2  0
 25  2  1  0
 24  5  1  0
  1 26  1  0
  1 27  1  0
  1 28  1  0
  3 29  1  0
  4 30  1  0
  6 31  1  0
  9 32  1  0
  9 33  1  0
 15 34  1  0
 15 35  1  0
 18 36  1  0
 19 37  1  1
 20 38  1  0
 20 39  1  0
 20 40  1  0
 23 41  1  0
 25 42  1  0
M  END
>  <smiles>  (45) 
Cc1ccc2cc(C(N)=O)n(C(=O)N(CC(=O)O)C(C)C(=O)O)c2c1

>  <score_type>  (45) 
oracle

>  <origin>  (45) 
adg

>  <m_score__min__energy>  (45) 
-6.6299999999999999

>  <m_primary>  (45) 
energy

$$$$
46:0
     RDKit          3D

 52 53  0  0  0  0  0  0  0  0999 V2000
  147.4010  154.2260  140.9790 C   0  0  0  0  0  0  0  0  0  0  0  0
  146.8520  153.7530  139.7100 N   0  0  0  0  0  0  0  0  0  0  0  0
  146.4540  152.3720  139.9120 C   0  0  0  0  0  0  0  0  0  0  0  0
  147.9430  153.7470  138.7370 C   0  0  0  0  0  0  0  0  0  0  0  0
  147.5630  152.8420  137.5840 C   0  0  0  0  0  0  0  0  0  0  0  0
  146.6130  153.3640  136.7430 O   0  0  0  0  0  0  0  0  0  0  0  0
  147.0960  154.2730  135.8060 C   0  0  0  0  0  0  0  0  0  0  0  0
  145.9760  154.4780  134.8110 C   0  0  0  0  0  0  0  0  0  0  0  0
  144.7480  153.9720  135.2000 O   0  0  0  0  0  0  0  0  0  0  0  0
  143.4960  154.4520  134.8890 C   0  0  0  0  0  0  0  0  0  0  0  0
  143.0820  154.1800  133.7230 O   0  0  0  0  0  0  0  0  0  0  0  0
  142.6640  155.2020  135.7480 N   0  0  0  0  0  0  0  0  0  0  0  0
  142.4680  155.0110  137.0760 C   0  0  0  0  0  0  0  0  0  0  0  0
  143.0170  154.0420  137.9780 C   0  0  0  0  0  0  0  0  0  0  0  0
  144.3430  153.5200  137.7250 N   0  0  0  0  0  0  0  0  0  0  0  0
  142.4670  153.5720  138.9980 O   0  0  0  0  0  0  0  0  0  0  0  0
  141.5610  155.9990  137.4910 C   0  0  0  0  0  0  0  0  0  0  0  0
  141.2140  156.7800  136.4140 C   0  0  0  0  0  0  0  0  0  0  0  0
  140.3670  157.8630  136.3090 C   0  0  0  0  0  0  0  0  0  0  0  0
  140.1970  158.4740  135.0860 C   0  0  0  0  0  0  0  0  0  0  0  0
  140.8750  157.9900  133.9940 C   0  0  0  0  0  0  0  0  0  0  0  0
  140.6630  158.6790  132.6980 C   0  0  0  0  0  0  0  0  0  0  0  0
  138.8890  158.6890  132.2400 P   0  0  0  0  0  0  0  0  0  0  0  0
  138.4590  160.1120  132.0970 O   0  0  0  0  0  0  0  0  0  0  0  0
  138.6710  157.8880  130.7550 O   0  0  0  0  0  0  0  0  0  0  0  0
  138.0070  157.8260  133.3740 O   0  0  0  0  0  0  0  0  0  0  0  0
  141.7200  156.9000  134.1270 C   0  0  0  0  0  0  0  0  0  0  0  0
  141.9160  156.2600  135.3470 C   0  0  0  0  0  0  0  0  0  0  0  0
  146.8565  153.7568  141.8117 H   0  0  0  0  0  0  0  0  0  0  0  0
  148.4661  153.9582  141.0403 H   0  0  0  0  0  0  0  0  0  0  0  0
  147.2937  155.3190  141.0403 H   0  0  0  0  0  0  0  0  0  0  0  0
  146.3934  152.1618  140.9900 H   0  0  0  0  0  0  0  0  0  0  0  0
  145.4704  152.2025  139.4495 H   0  0  0  0  0  0  0  0  0  0  0  0
  147.1965  151.7050  139.4495 H   0  0  0  0  0  0  0  0  0  0  0  0
  148.1125  154.7683  138.3652 H   0  0  0  0  0  0  0  0  0  0  0  0
  148.8653  153.3807  139.2116 H   0  0  0  0  0  0  0  0  0  0  0  0
  148.4689  152.6369  136.9946 H   0  0  0  0  0  0  0  0  0  0  0  0
  147.1255  151.9354  138.0275 H   0  0  0  0  0  0  0  0  0  0  0  0
  147.3533  155.2248  136.2937 H   0  0  0  0  0  0  0  0  0  0  0  0
  148.0081  153.9014  135.3161 H   0  0  0  0  0  0  0  0  0  0  0  0
  145.8620  155.5592  134.6436 H   0  0  0  0  0  0  0  0  0  0  0  0
  146.2640  153.9237  133.9056 H   0  0  0  0  0  0  0  0  0  0  0  0
  144.4800  152.9060  136.8820 H   0  0  0  0  0  0  0  0  0  0  0  0
  145.1380  153.7530  138.3670 H   0  0  0  0  0  0  0  0  0  0  0  0
  141.1866  156.1280  138.5172 H   0  0  0  0  0  0  0  0  0  0  0  0
  139.8315  158.2360  137.1945 H   0  0  0  0  0  0  0  0  0  0  0  0
  139.5259  159.3397  134.9852 H   0  0  0  0  0  0  0  0  0  0  0  0
  141.0189  159.7166  132.7801 H   0  0  0  0  0  0  0  0  0  0  0  0
  141.2222  158.1394  131.9194 H   0  0  0  0  0  0  0  0  0  0  0  0
  137.8850  158.1950  130.2660 H   0  0  0  0  0  0  0  0  0  0  0  0
  137.1700  157.5170  132.9040 H   0  0  0  0  0  0  0  0  0  0  0  0
  142.2532  156.5285  133.2395 H   0  0  0  0  0  0  0  0  0  0  0  0
  1  2  1  0
  2  3  1  0
  2  4  1  0
  4  5  1  0
  5  6  1  0
  6  7  1  0
  7  8  1  0
  8  9  1  0
  9 10  1  0
 10 11  2  0
 10 12  1  0
 12 13  1  0
 13 14  1  0
 14 15  1  0
 14 16  2  0
 13 17  2  0
 17 18  1  0
 18 19  2  0
 19 20  1  0
 20 21  2  0
 21 22  1  0
 22 23  1  0
 23 24  2  0
 23 25  1  0
 23 26  1  0
 21 27  1  0
 27 28  2  0
 28 12  1  0
 28 18  1  0
  1 29  1  0
  1 30  1  0
  1 31  1  0
  3 32  1  0
  3 33  1  0
  3 34  1  0
  4 35  1  0
  4 36  1  0
  5 37  1  0
  5 38  1  0
  7 39  1  0
  7 40  1  0
  8 41  1  0
  8 42  1  0
 15 43  1  0
 15 44  1  0
 17 45  1  0
 19 46  1  0
 20 47  1  0
 22 48  1  0
 22 49  1  0
 25 50  1  0
 26 51  1  0
 27 52  1  0
M  END
>  <smiles>  (46) 
CN(C)CCOCCOC(=O)n1c(C(N)=O)cc2ccc(CP(=O)(O)O)cc21

>  <score_type>  (46) 
oracle

>  <origin>  (46) 
adg

>  <m_score__min__energy>  (46) 
-7.1200000000000001

>  <m_primary>  (46) 
energy

$$$$
47:0
     RDKit          3D

 38 40  0  0  0  0  0  0  0  0999 V2000
  139.5240  156.2770  132.9730 C   0  0  0  0  0  0  0  0  0  0  0  0
  139.7640  157.7510  132.9210 C   0  0  0  0  0  0  0  0  0  0  0  0
  139.2370  158.6090  132.0640 O   0  0  0  0  0  0  0  0  0  0  0  0
  139.7050  159.7810  132.3650 C   0  0  0  0  0  0  0  0  0  0  0  0
  139.3880  160.8290  131.7210 O   0  0  0  0  0  0  0  0  0  0  0  0
  140.5170  159.7280  133.3840 O   0  0  0  0  0  0  0  0  0  0  0  0
  140.5900  158.4840  133.7700 C   0  0  0  0  0  0  0  0  0  0  0  0
  141.3650  157.8720  134.8760 C   0  0  0  0  0  0  0  0  0  0  0  0
  142.7190  158.3480  134.9180 O   0  0  0  0  0  0  0  0  0  0  0  0
  143.5280  158.0030  133.8380 C   0  0  0  0  0  0  0  0  0  0  0  0
  143.0840  157.0820  133.1100 O   0  0  0  0  0  0  0  0  0  0  0  0
  144.7580  158.6780  133.6250 N   0  0  0  0  0  0  0  0  0  0  0  0
  144.9580  160.0060  133.5850 C   0  0  0  0  0  0  0  0  0  0  0  0
  144.0450  161.1130  133.7270 C   0  0  0  0  0  0  0  0  0  0  0  0
  142.6340  160.8530  133.8260 N   0  0  0  0  0  0  0  0  0  0  0  0
  144.3570  162.3260  133.7750 O   0  0  0  0  0  0  0  0  0  0  0  0
  146.3210  160.1790  133.3580 C   0  0  0  0  0  0  0  0  0  0  0  0
  146.9430  158.9690  133.2610 C   0  0  0  0  0  0  0  0  0  0  0  0
  148.2630  158.6320  133.0460 C   0  0  0  0  0  0  0  0  0  0  0  0
  148.6260  157.3040  132.9940 C   0  0  0  0  0  0  0  0  0  0  0  0
  147.6570  156.3390  133.1590 C   0  0  0  0  0  0  0  0  0  0  0  0
  148.0800  154.9140  133.1000 C   0  0  0  0  0  0  0  0  0  0  0  0
  149.2250  154.7640  132.3400 F   0  0  0  0  0  0  0  0  0  0  0  0
  147.0960  154.1430  132.5220 F   0  0  0  0  0  0  0  0  0  0  0  0
  148.4070  154.4710  134.3700 F   0  0  0  0  0  0  0  0  0  0  0  0
  146.3280  156.7080  133.3760 C   0  0  0  0  0  0  0  0  0  0  0  0
  145.9420  158.0260  133.4330 C   0  0  0  0  0  0  0  0  0  0  0  0
  139.4709  155.9509  134.0222 H   0  0  0  0  0  0  0  0  0  0  0  0
  138.5757  156.0418  132.4675 H   0  0  0  0  0  0  0  0  0  0  0  0
  140.3487  155.7532  132.4675 H   0  0  0  0  0  0  0  0  0  0  0  0
  140.8741  158.1158  135.8297 H   0  0  0  0  0  0  0  0  0  0  0  0
  141.3942  156.7855  134.7069 H   0  0  0  0  0  0  0  0  0  0  0  0
  142.0210  161.3290  133.1280 H   0  0  0  0  0  0  0  0  0  0  0  0
  142.2690  160.2100  134.5780 H   0  0  0  0  0  0  0  0  0  0  0  0
  146.8244  161.1530  133.2695 H   0  0  0  0  0  0  0  0  0  0  0  0
  149.0211  159.4185  132.9169 H   0  0  0  0  0  0  0  0  0  0  0  0
  149.6745  157.0184  132.8232 H   0  0  0  0  0  0  0  0  0  0  0  0
  145.5690  155.9223  133.5049 H   0  0  0  0  0  0  0  0  0  0  0  0
  1  2  1  0
  2  3  1  0
  3  4  1  0
  4  5  2  0
  4  6  1  0
  6  7  1  0
  7  8  1  0
  8  9  1  0
  9 10  1  0
 10 11  2  0
 10 12  1  0
 12 13  1  0
 13 14  1  0
 14 15  1  0
 14 16  2  0
 13 17  2  0
 17 18  1  0
 18 19  2  0
 19 20  1  0
 20 21  2  0
 21 22  1  0
 22 23  1  0
 22 24  1  0
 22 25  1  0
 21 26  1  0
 26 27  2  0
  7  2  2  0
 27 12  1  0
 27 18  1  0
  1 28  1  0
  1 29  1  0
  1 30  1  0
  8 31  1  0
  8 32  1  0
 15 33  1  0
 15 34  1  0
 17 35  1  0
 19 36  1  0
 20 37  1  0
 26 38  1  0
M  END
>  <smiles>  (47) 
Cc1oc(=O)oc1COC(=O)n1c(C(N)=O)cc2ccc(C(F)(F)F)cc21

>  <score_type>  (47) 
oracle

>  <origin>  (47) 
adg

>  <m_score__min__energy>  (47) 
-7.0099999999999998

>  <m_primary>  (47) 
energy

$$$$
48:0
     RDKit          3D

 62 64  0  0  1  0  0  0  0  0999 V2000
  138.3830  159.9800  131.3560 C   0  0  0  0  0  0  0  0  0  0  0  0
  139.0510  158.6290  131.6210 C   0  0  0  0  0  0  0  0  0  0  0  0
  139.6400  158.7000  132.9300 O   0  0  0  0  0  0  0  0  0  0  0  0
  139.3230  157.6930  133.8390 C   0  0  0  0  0  0  0  0  0  0  0  0
  139.2550  156.5000  133.3760 O   0  0  0  0  0  0  0  0  0  0  0  0
  139.0940  157.9750  135.1760 O   0  0  0  0  0  0  0  0  0  0  0  0
  140.0870  157.6390  136.1280 C   0  0  2  0  0  0  0  0  0  0  0  0
  140.7070  158.9140  136.6890 C   0  0  0  0  0  0  0  0  0  0  0  0
  141.1250  156.8370  135.5950 O   0  0  0  0  0  0  0  0  0  0  0  0
  141.9660  156.0710  136.3870 C   0  0  0  0  0  0  0  0  0  0  0  0
  142.0320  156.1760  137.6520 O   0  0  0  0  0  0  0  0  0  0  0  0
  142.8180  155.1030  135.7910 N   0  0  0  0  0  0  0  0  0  0  0  0
  143.7170  154.2720  136.5710 C   0  0  0  0  0  0  0  0  0  0  0  0
  145.1530  154.4080  136.1070 C   0  0  0  0  0  0  0  0  0  0  0  0
  145.1710  154.6230  134.6510 N   0  0  0  0  0  0  0  0  0  0  0  0
  146.2180  155.3350  134.0070 C   0  0  0  0  0  0  0  0  0  0  0  0
  147.3730  154.6800  133.6330 C   0  0  0  0  0  0  0  0  0  0  0  0
  148.4150  155.3710  132.9980 C   0  0  0  0  0  0  0  0  0  0  0  0
  148.2830  156.7160  132.7460 C   0  0  0  0  0  0  0  0  0  0  0  0
  149.1370  157.6080  132.1490 C   0  0  0  0  0  0  0  0  0  0  0  0
  148.5090  158.8660  132.1410 C   0  0  0  0  0  0  0  0  0  0  0  0
  149.1530  160.0360  131.5810 C   0  0  0  0  0  0  0  0  0  0  0  0
  148.3580  161.2160  131.3080 N   0  0  0  0  0  0  0  0  0  0  0  0
  150.3700  160.1530  131.2920 O   0  0  0  0  0  0  0  0  0  0  0  0
  147.3100  158.7040  132.7240 N   0  0  0  0  0  0  0  0  0  0  0  0
  146.3400  159.7130  132.9220 C   0  0  0  0  0  0  0  0  0  0  0  0
  146.5360  160.8110  133.4990 O   0  0  0  0  0  0  0  0  0  0  0  0
  145.0240  159.5350  132.4550 O   0  0  0  0  0  0  0  0  0  0  0  0
  143.9900  159.2030  133.3870 C   0  0  0  0  0  0  0  0  0  0  0  0
  143.3180  160.4360  133.8430 C   0  0  0  0  0  0  0  0  0  0  0  0
  142.2320  160.4760  134.4600 O   0  0  0  0  0  0  0  0  0  0  0  0
  143.9390  161.6480  133.5680 O   0  0  0  0  0  0  0  0  0  0  0  0
  147.1440  157.4030  133.1040 C   0  0  0  0  0  0  0  0  0  0  0  0
  146.1500  156.6830  133.7250 C   0  0  0  0  0  0  0  0  0  0  0  0
  144.0330  154.0520  133.9460 C   0  0  0  0  0  0  0  0  0  0  0  0
  142.8350  154.8930  134.3480 C   0  0  0  0  0  0  0  0  0  0  0  0
  138.1433  160.4647  132.3139 H   0  0  0  0  0  0  0  0  0  0  0  0
  139.0678  160.6213  130.7818 H   0  0  0  0  0  0  0  0  0  0  0  0
  137.4576  159.8251  130.7818 H   0  0  0  0  0  0  0  0  0  0  0  0
  138.3018  157.8243  131.5872 H   0  0  0  0  0  0  0  0  0  0  0  0
  139.8141  158.4126  130.8588 H   0  0  0  0  0  0  0  0  0  0  0  0
  139.5822  157.0552  136.9118 H   0  0  0  0  0  0  0  0  0  0  0  0
  140.6892  158.8775  137.7882 H   0  0  0  0  0  0  0  0  0  0  0  0
  141.7472  158.9994  136.3417 H   0  0  0  0  0  0  0  0  0  0  0  0
  140.1318  159.7850  136.3417 H   0  0  0  0  0  0  0  0  0  0  0  0
  143.6539  154.5730  137.6271 H   0  0  0  0  0  0  0  0  0  0  0  0
  143.4131  153.2229  136.4403 H   0  0  0  0  0  0  0  0  0  0  0  0
  145.6234  155.2648  136.6116 H   0  0  0  0  0  0  0  0  0  0  0  0
  145.7100  153.4919  136.3530 H   0  0  0  0  0  0  0  0  0  0  0  0
  147.4778  153.6038  133.8351 H   0  0  0  0  0  0  0  0  0  0  0  0
  149.3323  154.8402  132.7034 H   0  0  0  0  0  0  0  0  0  0  0  0
  150.1355  157.3798  131.7479 H   0  0  0  0  0  0  0  0  0  0  0  0
  148.5780  161.8440  130.5230 H   0  0  0  0  0  0  0  0  0  0  0  0
  147.5300  161.4490  131.9200 H   0  0  0  0  0  0  0  0  0  0  0  0
  143.2556  158.5449  132.8996 H   0  0  0  0  0  0  0  0  0  0  0  0
  144.4309  158.6865  134.2523 H   0  0  0  0  0  0  0  0  0  0  0  0
  144.7450  161.6810  132.9660 H   0  0  0  0  0  0  0  0  0  0  0  0
  145.2360  157.2207  134.0174 H   0  0  0  0  0  0  0  0  0  0  0  0
  144.1903  154.1041  132.8586 H   0  0  0  0  0  0  0  0  0  0  0  0
  143.8882  152.9919  134.2013 H   0  0  0  0  0  0  0  0  0  0  0  0
  142.8908  155.8677  133.8412 H   0  0  0  0  0  0  0  0  0  0  0  0
  141.9157  154.3647  134.0551 H   0  0  0  0  0  0  0  0  0  0  0  0
  1  2  1  0
  2  3  1  0
  3  4  1  0
  4  5  2  0
  4  6  1  0
  6  7  1  0
  7  8  1  0
  7  9  1  0
  9 10  1  0
 10 11  2  0
 10 12  1  0
 12 13  1  0
 13 14  1  0
 14 15  1  0
 15 16  1  0
 16 17  2  0
 17 18  1  0
 18 19  2  0
 19 20  1  0
 20 21  2  0
 21 22  1  0
 22 23  1  0
 22 24  2  0
 21 25  1  0
 25 26  1  0
 26 27  2  0
 26 28  1  0
 28 29  1  0
 29 30  1  0
 30 31  2  0
 30 32  1  0
 25 33  1  0
 33 34  2  0
 15 35  1  0
 35 36  1  0
 36 12  1  0
 34 16  1  0
 33 19  1  0
  1 37  1  0
  1 38  1  0
  1 39  1  0
  2 40  1  0
  2 41  1  0
  7 42  1  1
  8 43  1  0
  8 44  1  0
  8 45  1  0
 13 46  1  0
 13 47  1  0
 14 48  1  0
 14 49  1  0
 17 50  1  0
 18 51  1  0
 20 52  1  0
 23 53  1  0
 23 54  1  0
 29 55  1  0
 29 56  1  0
 32 57  1  0
 34 58  1  0
 35 59  1  0
 35 60  1  0
 36 61  1  0
 36 62  1  0
M  END
>  <smiles>  (48) 
CCOC(=O)OC(C)OC(=O)N1CCN(c2ccc3cc(C(N)=O)n(C(=O)OCC(=O)O)c3c2)CC1

>  <score_type>  (48) 
oracle

>  <origin>  (48) 
adg

>  <m_score__min__energy>  (48) 
-8.1300000000000008

>  <m_primary>  (48) 
energy

$$$$
49:0
     RDKit          3D

 48 50  0  0  0  0  0  0  0  0999 V2000
  145.5450  153.2490  133.0540 C   0  0  0  0  0  0  0  0  0  0  0  0
  146.6720  154.1430  133.0990 N   0  0  0  0  0  0  0  0  0  0  0  0
  147.9330  153.5880  133.5690 C   0  0  0  0  0  0  0  0  0  0  0  0
  149.0400  153.8240  132.6130 C   0  0  0  0  0  0  0  0  0  0  0  0
  149.6200  152.8270  132.0690 O   0  0  0  0  0  0  0  0  0  0  0  0
  149.4730  155.1020  132.2850 O   0  0  0  0  0  0  0  0  0  0  0  0
  146.5890  155.5320  132.7050 C   0  0  0  0  0  0  0  0  0  0  0  0
  146.9330  155.7440  131.5090 O   0  0  0  0  0  0  0  0  0  0  0  0
  146.1440  156.5440  133.6320 C   0  0  0  0  0  0  0  0  0  0  0  0
  145.7580  156.0990  134.7720 O   0  0  0  0  0  0  0  0  0  0  0  0
  146.0910  157.9350  133.4560 N   0  0  0  0  0  0  0  0  0  0  0  0
  147.0490  158.8570  133.2930 C   0  0  0  0  0  0  0  0  0  0  0  0
  148.4440  158.7230  132.8960 C   0  0  0  0  0  0  0  0  0  0  0  0
  149.0480  157.5450  132.3950 N   0  0  0  0  0  0  0  0  0  0  0  0
  149.2170  159.7390  132.9840 O   0  0  0  0  0  0  0  0  0  0  0  0
  146.4940  160.1480  133.3740 C   0  0  0  0  0  0  0  0  0  0  0  0
  145.1590  159.9850  133.5860 C   0  0  0  0  0  0  0  0  0  0  0  0
  144.1740  160.9400  133.7350 C   0  0  0  0  0  0  0  0  0  0  0  0
  142.8720  160.5500  133.9440 C   0  0  0  0  0  0  0  0  0  0  0  0
  142.5970  159.2070  133.9970 C   0  0  0  0  0  0  0  0  0  0  0  0
  141.2470  158.8060  134.2160 N   0  0  0  0  0  0  0  0  0  0  0  0
  140.5280  158.1640  133.1180 C   0  0  0  0  0  0  0  0  0  0  0  0
  139.0940  157.9240  133.3500 C   0  0  0  0  0  0  0  0  0  0  0  0
  138.6160  158.1360  134.6270 O   0  0  0  0  0  0  0  0  0  0  0  0
  139.5650  157.8640  135.5780 C   0  0  0  0  0  0  0  0  0  0  0  0
  140.5840  159.0060  135.4580 C   0  0  0  0  0  0  0  0  0  0  0  0
  143.6050  158.2570  133.8450 C   0  0  0  0  0  0  0  0  0  0  0  0
  144.9320  158.6340  133.6320 C   0  0  0  0  0  0  0  0  0  0  0  0
  145.2325  153.0011  134.0791 H   0  0  0  0  0  0  0  0  0  0  0  0
  144.7124  153.7349  132.5242 H   0  0  0  0  0  0  0  0  0  0  0  0
  145.8288  152.3277  132.5242 H   0  0  0  0  0  0  0  0  0  0  0  0
  148.1896  154.0565  134.5306 H   0  0  0  0  0  0  0  0  0  0  0  0
  147.8045  152.5007  133.6747 H   0  0  0  0  0  0  0  0  0  0  0  0
  149.0780  155.6340  131.5200 H   0  0  0  0  0  0  0  0  0  0  0  0
  150.0040  157.2230  132.6720 H   0  0  0  0  0  0  0  0  0  0  0  0
  148.4960  156.9820  131.7130 H   0  0  0  0  0  0  0  0  0  0  0  0
  147.0335  161.1023  133.2836 H   0  0  0  0  0  0  0  0  0  0  0  0
  144.4293  162.0089  133.6868 H   0  0  0  0  0  0  0  0  0  0  0  0
  142.0721  161.2952  134.0655 H   0  0  0  0  0  0  0  0  0  0  0  0
  140.6242  158.8056  132.2297 H   0  0  0  0  0  0  0  0  0  0  0  0
  140.9840  157.1699  133.0006 H   0  0  0  0  0  0  0  0  0  0  0  0
  138.5342  158.5864  132.6733 H   0  0  0  0  0  0  0  0  0  0  0  0
  138.9549  156.8476  133.1712 H   0  0  0  0  0  0  0  0  0  0  0  0
  139.1146  157.8512  136.5815 H   0  0  0  0  0  0  0  0  0  0  0  0
  140.0291  156.8779  135.4293 H   0  0  0  0  0  0  0  0  0  0  0  0
  140.0712  159.9791  135.4659 H   0  0  0  0  0  0  0  0  0  0  0  0
  141.2926  159.0058  136.2993 H   0  0  0  0  0  0  0  0  0  0  0  0
  143.3498  157.1881  133.8939 H   0  0  0  0  0  0  0  0  0  0  0  0
  1  2  1  0
  2  3  1  0
  3  4  1  0
  4  5  2  0
  4  6  1  0
  2  7  1  0
  7  8  2  0
  7  9  1  0
  9 10  2  0
  9 11  1  0
 11 12  1  0
 12 13  1  0
 13 14  1  0
 13 15  2  0
 12 16  2  0
 16 17  1  0
 17 18  2  0
 18 19  1  0
 19 20  2  0
 20 21  1  0
 21 22  1  0
 22 23  1  0
 23 24  1  0
 24 25  1  0
 25 26  1  0
 20 27  1  0
 27 28  2  0
 28 11  1  0
 28 17  1  0
 26 21  1  0
  1 29  1  0
  1 30  1  0
  1 31  1  0
  3 32  1  0
  3 33  1  0
  6 34  1  0
 14 35  1  0
 14 36  1  0
 16 37  1  0
 18 38  1  0
 19 39  1  0
 22 40  1  0
 22 41  1  0
 23 42  1  0
 23 43  1  0
 25 44  1  0
 25 45  1  0
 26 46  1  0
 26 47  1  0
 27 48  1  0
M  END
>  <smiles>  (49) 
CN(CC(=O)O)C(=O)C(=O)n1c(C(N)=O)cc2ccc(N3CCOCC3)cc21

>  <score_type>  (49) 
oracle

>  <origin>  (49) 
adg

>  <m_score__min__energy>  (49) 
-7.8700000000000001

>  <m_primary>  (49) 
energy

$$$$
50:0
     RDKit          3D

 33 34  0  0  0  0  0  0  0  0999 V2000
  145.7740  162.7470  134.4900 C   0  0  0  0  0  0  0  0  0  0  0  0
  144.7370  161.8720  133.8990 C   0  0  0  0  0  0  0  0  0  0  0  0
  143.6940  162.4990  133.4990 O   0  0  0  0  0  0  0  0  0  0  0  0
  144.8170  160.4750  133.7540 N   0  0  0  0  0  0  0  0  0  0  0  0
  143.8210  159.6040  134.0020 C   0  0  0  0  0  0  0  0  0  0  0  0
  142.4620  159.7770  134.4550 C   0  0  0  0  0  0  0  0  0  0  0  0
  141.5800  160.7010  133.7580 N   0  0  0  0  0  0  0  0  0  0  0  0
  141.9110  159.2070  135.4220 O   0  0  0  0  0  0  0  0  0  0  0  0
  144.3310  158.3200  133.7300 C   0  0  0  0  0  0  0  0  0  0  0  0
  145.6230  158.4210  133.3220 C   0  0  0  0  0  0  0  0  0  0  0  0
  146.5340  157.4630  132.9470 C   0  0  0  0  0  0  0  0  0  0  0  0
  147.8060  157.8340  132.5690 C   0  0  0  0  0  0  0  0  0  0  0  0
  148.1350  159.1580  132.5740 C   0  0  0  0  0  0  0  0  0  0  0  0
  149.5040  159.5820  132.1680 C   0  0  0  0  0  0  0  0  0  0  0  0
  149.5430  160.3350  130.5400 P   0  0  0  0  0  0  0  0  0  0  0  0
  150.7070  159.8450  129.6890 O   0  0  0  0  0  0  0  0  0  0  0  0
  149.7500  162.0300  130.6450 O   0  0  0  0  0  0  0  0  0  0  0  0
  148.1000  160.0960  129.7010 O   0  0  0  0  0  0  0  0  0  0  0  0
  147.1970  160.1090  132.9560 C   0  0  0  0  0  0  0  0  0  0  0  0
  145.9160  159.7800  133.3420 C   0  0  0  0  0  0  0  0  0  0  0  0
  145.7144  162.6967  135.5872 H   0  0  0  0  0  0  0  0  0  0  0  0
  146.7684  162.4109  134.1610 H   0  0  0  0  0  0  0  0  0  0  0  0
  145.6100  163.7838  134.1610 H   0  0  0  0  0  0  0  0  0  0  0  0
  140.8450  160.2300  133.1700 H   0  0  0  0  0  0  0  0  0  0  0  0
  141.6960  161.7160  133.8570 H   0  0  0  0  0  0  0  0  0  0  0  0
  143.7696  157.3796  133.8321 H   0  0  0  0  0  0  0  0  0  0  0  0
  146.2480  156.4008  132.9486 H   0  0  0  0  0  0  0  0  0  0  0  0
  148.5437  157.0755  132.2683 H   0  0  0  0  0  0  0  0  0  0  0  0
  149.8784  160.3110  132.9017 H   0  0  0  0  0  0  0  0  0  0  0  0
  150.1333  158.6805  132.1316 H   0  0  0  0  0  0  0  0  0  0  0  0
  150.7040  162.2240  130.7440 H   0  0  0  0  0  0  0  0  0  0  0  0
  148.0650  160.8110  129.0000 H   0  0  0  0  0  0  0  0  0  0  0  0
  147.4894  161.1694  132.9500 H   0  0  0  0  0  0  0  0  0  0  0  0
  1  2  1  0
  2  3  2  0
  2  4  1  0
  4  5  1  0
  5  6  1  0
  6  7  1  0
  6  8  2  0
  5  9  2  0
  9 10  1  0
 10 11  2  0
 11 12  1  0
 12 13  2  0
 13 14  1  0
 14 15  1  0
 15 16  2  0
 15 17  1  0
 15 18  1  0
 13 19  1  0
 19 20  2  0
 20  4  1  0
 20 10  1  0
  1 21  1  0
  1 22  1  0
  1 23  1  0
  7 24  1  0
  7 25  1  0
  9 26  1  0
 11 27  1  0
 12 28  1  0
 14 29  1  0
 14 30  1  0
 17 31  1  0
 18 32  1  0
 19 33  1  0
M  END
>  <smiles>  (50) 
CC(=O)n1c(C(N)=O)cc2ccc(CP(=O)(O)O)cc21

>  <score_type>  (50) 
oracle

>  <origin>  (50) 
adg

>  <m_score__min__energy>  (50) 
-7

>  <m_primary>  (50) 
energy

$$$$
51:0
     RDKit          3D

 49 50  0  0  0  0  0  0  0  0999 V2000
  149.5950  161.9000  130.3640 C   0  0  0  0  0  0  0  0  0  0  0  0
  150.0070  160.9440  129.4160 O   0  0  0  0  0  0  0  0  0  0  0  0
  149.6390  159.6810  129.8770 C   0  0  0  0  0  0  0  0  0  0  0  0
  149.7590  159.5840  131.3760 C   0  0  0  0  0  0  0  0  0  0  0  0
  148.5090  159.1540  132.0370 C   0  0  0  0  0  0  0  0  0  0  0  0
  147.5500  160.0970  132.2800 C   0  0  0  0  0  0  0  0  0  0  0  0
  146.3790  159.7250  132.8930 C   0  0  0  0  0  0  0  0  0  0  0  0
  146.2040  158.4040  133.2470 C   0  0  0  0  0  0  0  0  0  0  0  0
  145.1410  157.8060  133.8580 C   0  0  0  0  0  0  0  0  0  0  0  0
  145.4490  156.4410  133.9990 C   0  0  0  0  0  0  0  0  0  0  0  0
  144.4750  155.5460  134.5880 C   0  0  0  0  0  0  0  0  0  0  0  0
  144.9420  154.3060  135.1870 N   0  0  0  0  0  0  0  0  0  0  0  0
  143.2400  155.7000  134.6520 O   0  0  0  0  0  0  0  0  0  0  0  0
  146.6670  156.2110  133.4930 N   0  0  0  0  0  0  0  0  0  0  0  0
  147.5010  155.0770  133.5040 C   0  0  0  0  0  0  0  0  0  0  0  0
  147.7640  154.5340  134.6420 O   0  0  0  0  0  0  0  0  0  0  0  0
  148.1000  154.4250  132.4170 N   0  0  0  0  0  0  0  0  0  0  0  0
  148.9760  153.2920  132.6250 C   0  0  0  0  0  0  0  0  0  0  0  0
  149.2270  152.8600  133.7820 O   0  0  0  0  0  0  0  0  0  0  0  0
  149.5510  152.6730  131.5010 O   0  0  0  0  0  0  0  0  0  0  0  0
  149.6090  151.2590  131.4780 C   0  0  0  0  0  0  0  0  0  0  0  0
  150.6800  150.8050  132.4740 C   0  0  0  0  0  0  0  0  0  0  0  0
  150.0610  150.7410  130.1130 C   0  0  0  0  0  0  0  0  0  0  0  0
  148.3280  150.6030  131.8810 C   0  0  0  0  0  0  0  0  0  0  0  0
  147.1280  157.4180  133.0290 C   0  0  0  0  0  0  0  0  0  0  0  0
  148.3040  157.8190  132.4080 C   0  0  0  0  0  0  0  0  0  0  0  0
  149.7641  161.5077  131.3777 H   0  0  0  0  0  0  0  0  0  0  0  0
  150.1743  162.8251  130.2275 H   0  0  0  0  0  0  0  0  0  0  0  0
  148.5247  162.1141  130.2275 H   0  0  0  0  0  0  0  0  0  0  0  0
  148.5958  159.4851  129.5884 H   0  0  0  0  0  0  0  0  0  0  0  0
  150.3154  158.9389  129.4277 H   0  0  0  0  0  0  0  0  0  0  0  0
  150.5488  158.8571  131.6165 H   0  0  0  0  0  0  0  0  0  0  0  0
  149.9945  160.5915  131.7494 H   0  0  0  0  0  0  0  0  0  0  0  0
  147.7148  161.1444  131.9872 H   0  0  0  0  0  0  0  0  0  0  0  0
  145.5942  160.4680  133.0981 H   0  0  0  0  0  0  0  0  0  0  0  0
  144.2132  158.3007  134.1811 H   0  0  0  0  0  0  0  0  0  0  0  0
  144.3780  153.4410  135.1630 H   0  0  0  0  0  0  0  0  0  0  0  0
  145.8810  154.2810  135.6630 H   0  0  0  0  0  0  0  0  0  0  0  0
  147.9530  154.7050  131.4670 H   0  0  0  0  0  0  0  0  0  0  0  0
  150.3154  150.9595  133.5002 H   0  0  0  0  0  0  0  0  0  0  0  0
  150.8964  149.7377  132.3186 H   0  0  0  0  0  0  0  0  0  0  0  0
  151.5975  151.3916  132.3186 H   0  0  0  0  0  0  0  0  0  0  0  0
  150.7784  149.9188  130.2520 H   0  0  0  0  0  0  0  0  0  0  0  0
  149.1882  150.3752  129.5523 H   0  0  0  0  0  0  0  0  0  0  0  0
  150.5417  151.5562  129.5523 H   0  0  0  0  0  0  0  0  0  0  0  0
  148.2626  150.5695  132.9785 H   0  0  0  0  0  0  0  0  0  0  0  0
  147.4799  151.1777  131.4805 H   0  0  0  0  0  0  0  0  0  0  0  0
  148.2987  149.5789  131.4805 H   0  0  0  0  0  0  0  0  0  0  0  0
  149.0881  157.0750  132.2040 H   0  0  0  0  0  0  0  0  0  0  0  0
  1  2  1  0
  2  3  1  0
  3  4  1  0
  4  5  1  0
  5  6  2  0
  6  7  1  0
  7  8  2  0
  8  9  1  0
  9 10  2  0
 10 11  1  0
 11 12  1  0
 11 13  2  0
 10 14  1  0
 14 15  1  0
 15 16  2  0
 15 17  1  0
 17 18  1  0
 18 19  2  0
 18 20  1  0
 20 21  1  0
 21 22  1  0
 21 23  1  0
 21 24  1  0
 14 25  1  0
 25 26  2  0
 26  5  1  0
 25  8  1  0
  1 27  1  0
  1 28  1  0
  1 29  1  0
  3 30  1  0
  3 31  1  0
  4 32  1  0
  4 33  1  0
  6 34  1  0
  7 35  1  0
  9 36  1  0
 12 37  1  0
 12 38  1  0
 17 39  1  0
 22 40  1  0
 22 41  1  0
 22 42  1  0
 23 43  1  0
 23 44  1  0
 23 45  1  0
 24 46  1  0
 24 47  1  0
 24 48  1  0
 26 49  1  0
M  END
>  <smiles>  (51) 
COCCc1ccc2cc(C(N)=O)n(C(=O)NC(=O)OC(C)(C)C)c2c1

>  <score_type>  (51) 
oracle

>  <origin>  (51) 
adg

>  <m_score__min__energy>  (51) 
-8.1799999999999997

>  <m_primary>  (51) 
energy

$$$$
52:0
     RDKit          3D

 57 59  0  0  1  0  0  0  0  0999 V2000
  138.7420  160.8580  130.5810 C   0  0  0  0  0  0  0  0  0  0  0  0
  139.1350  159.7040  131.3770 N   0  0  0  0  0  0  0  0  0  0  0  0
  138.6280  158.3630  131.1410 C   0  0  0  0  0  0  0  0  0  0  0  0
  138.8840  157.7200  132.5280 C   0  0  0  0  0  0  0  0  0  0  0  0
  140.2580  158.2700  132.8030 C   0  0  2  0  0  0  0  0  0  0  0  0
  140.8220  157.9920  134.1480 C   0  0  0  0  0  0  0  0  0  0  0  0
  141.6030  159.0360  134.7450 N   0  0  0  0  0  0  0  0  0  0  0  0
  141.0450  159.7320  135.8890 C   0  0  0  0  0  0  0  0  0  0  0  0
  142.9060  159.4250  134.2790 C   0  0  0  0  0  0  0  0  0  0  0  0
  143.3060  160.7280  134.1800 C   0  0  0  0  0  0  0  0  0  0  0  0
  144.5780  161.0950  133.7260 C   0  0  0  0  0  0  0  0  0  0  0  0
  145.4310  160.0780  133.3740 C   0  0  0  0  0  0  0  0  0  0  0  0
  146.7200  160.1050  132.9000 C   0  0  0  0  0  0  0  0  0  0  0  0
  147.1730  158.8050  132.6850 C   0  0  0  0  0  0  0  0  0  0  0  0
  148.4990  158.5360  132.1840 C   0  0  0  0  0  0  0  0  0  0  0  0
  149.2890  157.3910  132.3920 N   0  0  0  0  0  0  0  0  0  0  0  0
  149.0320  159.4400  131.4650 O   0  0  0  0  0  0  0  0  0  0  0  0
  146.1600  157.9970  133.0280 N   0  0  0  0  0  0  0  0  0  0  0  0
  146.1270  156.5850  132.9900 C   0  0  0  0  0  0  0  0  0  0  0  0
  145.0910  155.9680  133.4210 O   0  0  0  0  0  0  0  0  0  0  0  0
  147.1210  155.7610  132.5220 O   0  0  0  0  0  0  0  0  0  0  0  0
  147.6160  154.6340  133.1980 C   0  0  0  0  0  0  0  0  0  0  0  0
  148.9470  154.1530  132.6530 C   0  0  0  0  0  0  0  0  0  0  0  0
  147.7130  154.8560  134.6920 C   0  0  0  0  0  0  0  0  0  0  0  0
  146.6190  153.5100  132.9740 C   0  0  0  0  0  0  0  0  0  0  0  0
  145.0920  158.7460  133.4490 C   0  0  0  0  0  0  0  0  0  0  0  0
  143.8260  158.4550  133.9050 C   0  0  0  0  0  0  0  0  0  0  0  0
  140.0540  159.7020  132.4860 C   0  0  0  0  0  0  0  0  0  0  0  0
  140.5050  160.7430  132.9780 O   0  0  0  0  0  0  0  0  0  0  0  0
  138.4603  161.6854  131.2489 H   0  0  0  0  0  0  0  0  0  0  0  0
  139.5846  161.1698  129.9463 H   0  0  0  0  0  0  0  0  0  0  0  0
  137.8842  160.5907  129.9463 H   0  0  0  0  0  0  0  0  0  0  0  0
  137.5575  158.3716  130.8881 H   0  0  0  0  0  0  0  0  0  0  0  0
  139.0966  157.8364  130.2966 H   0  0  0  0  0  0  0  0  0  0  0  0
  138.1505  158.0531  133.2771 H   0  0  0  0  0  0  0  0  0  0  0  0
  138.8022  156.6235  132.5595 H   0  0  0  0  0  0  0  0  0  0  0  0
  141.0441  157.7842  132.2062 H   0  0  0  0  0  0  0  0  0  0  0  0
  139.9817  157.7756  134.8241 H   0  0  0  0  0  0  0  0  0  0  0  0
  141.5202  157.1546  134.0023 H   0  0  0  0  0  0  0  0  0  0  0  0
  141.4155  159.2698  136.8159 H   0  0  0  0  0  0  0  0  0  0  0  0
  141.3489  160.7888  135.8593 H   0  0  0  0  0  0  0  0  0  0  0  0
  139.9474  159.6652  135.8593 H   0  0  0  0  0  0  0  0  0  0  0  0
  142.5997  161.5203  134.4688 H   0  0  0  0  0  0  0  0  0  0  0  0
  144.8807  162.1501  133.6544 H   0  0  0  0  0  0  0  0  0  0  0  0
  147.3071  161.0171  132.7174 H   0  0  0  0  0  0  0  0  0  0  0  0
  149.9640  157.3400  133.2080 H   0  0  0  0  0  0  0  0  0  0  0  0
  149.1830  156.6080  131.7010 H   0  0  0  0  0  0  0  0  0  0  0  0
  149.6193  153.9100  133.4890 H   0  0  0  0  0  0  0  0  0  0  0  0
  148.7883  153.2554  132.0373 H   0  0  0  0  0  0  0  0  0  0  0  0
  149.3988  154.9447  132.0373 H   0  0  0  0  0  0  0  0  0  0  0  0
  147.3266  153.9717  135.2199 H   0  0  0  0  0  0  0  0  0  0  0  0
  148.7645  155.0192  134.9709 H   0  0  0  0  0  0  0  0  0  0  0  0
  147.1184  155.7384  134.9709 H   0  0  0  0  0  0  0  0  0  0  0  0
  146.2769  153.1243  133.9457 H   0  0  0  0  0  0  0  0  0  0  0  0
  145.7572  153.8919  132.4071 H   0  0  0  0  0  0  0  0  0  0  0  0
  147.1010  152.6999  132.4071 H   0  0  0  0  0  0  0  0  0  0  0  0
  143.5279  157.3986  133.9767 H   0  0  0  0  0  0  0  0  0  0  0  0
  1  2  1  0
  2  3  1  0
  3  4  1  0
  4  5  1  0
  5  6  1  0
  6  7  1  0
  7  8  1  0
  7  9  1  0
  9 10  2  0
 10 11  1  0
 11 12  2  0
 12 13  1  0
 13 14  2  0
 14 15  1  0
 15 16  1  0
 15 17  2  0
 14 18  1  0
 18 19  1  0
 19 20  2  0
 19 21  1  0
 21 22  1  0
 22 23  1  0
 22 24  1  0
 22 25  1  0
 18 26  1  0
 26 27  2  0
  5 28  1  0
 28 29  2  0
 28  2  1  0
 27  9  1  0
 26 12  1  0
  1 30  1  0
  1 31  1  0
  1 32  1  0
  3 33  1  0
  3 34  1  0
  4 35  1  0
  4 36  1  0
  5 37  1  6
  6 38  1  0
  6 39  1  0
  8 40  1  0
  8 41  1  0
  8 42  1  0
 10 43  1  0
 11 44  1  0
 13 45  1  0
 16 46  1  0
 16 47  1  0
 23 48  1  0
 23 49  1  0
 23 50  1  0
 24 51  1  0
 24 52  1  0
 24 53  1  0
 25 54  1  0
 25 55  1  0
 25 56  1  0
 27 57  1  0
M  END
>  <smiles>  (52) 
CN1CCC(CN(C)c2ccc3cc(C(N)=O)n(C(=O)OC(C)(C)C)c3c2)C1=O

>  <score_type>  (52) 
oracle

>  <origin>  (52) 
adg

>  <m_score__min__energy>  (52) 
-9.3399999999999999

>  <m_primary>  (52) 
energy

$$$$
54:0
     RDKit          3D

 45 46  0  0  0  0  0  0  0  0999 V2000
  138.8920  158.1890  134.0470 C   0  0  0  0  0  0  0  0  0  0  0  0
  140.2760  158.0370  133.3770 C   0  0  0  0  0  0  0  0  0  0  0  0
  140.3640  158.9470  132.1910 C   0  0  0  0  0  0  0  0  0  0  0  0
  140.3630  156.5660  133.0440 C   0  0  0  0  0  0  0  0  0  0  0  0
  141.6490  156.0700  133.2980 O   0  0  0  0  0  0  0  0  0  0  0  0
  141.2910  158.3620  134.3250 N   0  0  0  0  0  0  0  0  0  0  0  0
  142.5660  158.9120  134.0620 C   0  0  0  0  0  0  0  0  0  0  0  0
  142.8450  160.2620  134.0640 C   0  0  0  0  0  0  0  0  0  0  0  0
  144.1100  160.7700  133.7950 C   0  0  0  0  0  0  0  0  0  0  0  0
  145.1090  159.8760  133.5200 C   0  0  0  0  0  0  0  0  0  0  0  0
  146.4200  160.0730  133.2250 C   0  0  0  0  0  0  0  0  0  0  0  0
  147.0430  158.8330  133.0200 C   0  0  0  0  0  0  0  0  0  0  0  0
  148.4430  158.7220  132.6890 C   0  0  0  0  0  0  0  0  0  0  0  0
  149.0480  157.4120  132.5820 N   0  0  0  0  0  0  0  0  0  0  0  0
  149.2330  159.6700  132.4750 O   0  0  0  0  0  0  0  0  0  0  0  0
  146.0910  157.9090  133.1960 N   0  0  0  0  0  0  0  0  0  0  0  0
  146.2420  156.5080  133.0910 C   0  0  0  0  0  0  0  0  0  0  0  0
  146.7900  155.9960  132.0530 O   0  0  0  0  0  0  0  0  0  0  0  0
  145.8420  155.5830  134.0360 O   0  0  0  0  0  0  0  0  0  0  0  0
  145.3420  154.3400  133.6440 C   0  0  0  0  0  0  0  0  0  0  0  0
  144.0960  154.4350  132.8540 C   0  0  0  0  0  0  0  0  0  0  0  0
  144.0280  155.4770  131.8760 N   0  0  0  0  0  0  0  0  0  0  0  0
  143.1120  153.6570  133.0000 O   0  0  0  0  0  0  0  0  0  0  0  0
  144.9020  158.5160  133.5010 C   0  0  0  0  0  0  0  0  0  0  0  0
  143.6320  158.0720  133.7730 C   0  0  0  0  0  0  0  0  0  0  0  0
  139.0106  158.1760  135.1405 H   0  0  0  0  0  0  0  0  0  0  0  0
  138.4381  159.1424  133.7387 H   0  0  0  0  0  0  0  0  0  0  0  0
  138.2420  157.3568  133.7387 H   0  0  0  0  0  0  0  0  0  0  0  0
  140.4646  159.9874  132.5338 H   0  0  0  0  0  0  0  0  0  0  0  0
  141.2400  158.6746  131.5840 H   0  0  0  0  0  0  0  0  0  0  0  0
  139.4520  158.8475  131.5840 H   0  0  0  0  0  0  0  0  0  0  0  0
  139.6365  156.0142  133.6586 H   0  0  0  0  0  0  0  0  0  0  0  0
  140.1409  156.4344  131.9747 H   0  0  0  0  0  0  0  0  0  0  0  0
  141.8390  155.3760  132.6260 H   0  0  0  0  0  0  0  0  0  0  0  0
  141.0630  158.1680  135.3470 H   0  0  0  0  0  0  0  0  0  0  0  0
  142.0312  160.9673  134.2882 H   0  0  0  0  0  0  0  0  0  0  0  0
  144.3018  161.8531  133.8028 H   0  0  0  0  0  0  0  0  0  0  0  0
  146.9161  161.0525  133.1574 H   0  0  0  0  0  0  0  0  0  0  0  0
  148.7110  156.7580  131.8420 H   0  0  0  0  0  0  0  0  0  0  0  0
  149.8120  157.1750  133.2640 H   0  0  0  0  0  0  0  0  0  0  0  0
  146.1045  153.8332  133.0343 H   0  0  0  0  0  0  0  0  0  0  0  0
  145.1054  153.7796  134.5605 H   0  0  0  0  0  0  0  0  0  0  0  0
  143.2130  156.1230  131.8170 H   0  0  0  0  0  0  0  0  0  0  0  0
  144.7910  155.6280  131.1880 H   0  0  0  0  0  0  0  0  0  0  0  0
  143.4487  156.9875  133.7612 H   0  0  0  0  0  0  0  0  0  0  0  0
  1  2  1  0
  2  3  1  0
  2  4  1  0
  4  5  1  0
  2  6  1  0
  6  7  1  0
  7  8  2  0
  8  9  1  0
  9 10  2  0
 10 11  1  0
 11 12  2  0
 12 13  1  0
 13 14  1  0
 13 15  2  0
 12 16  1  0
 16 17  1  0
 17 18  2  0
 17 19  1  0
 19 20  1  0
 20 21  1  0
 21 22  1  0
 21 23  2  0
 16 24  1  0
 24 25  2  0
 25  7  1  0
 24 10  1  0
  1 26  1  0
  1 27  1  0
  1 28  1  0
  3 29  1  0
  3 30  1  0
  3 31  1  0
  4 32  1  0
  4 33  1  0
  5 34  1  0
  6 35  1  0
  8 36  1  0
  9 37  1  0
 11 38  1  0
 14 39  1  0
 14 40  1  0
 20 41  1  0
 20 42  1  0
 22 43  1  0
 22 44  1  0
 25 45  1  0
M  END
>  <smiles>  (53) 
CC(C)(CO)Nc1ccc2cc(C(N)=O)n(C(=O)OCC(N)=O)c2c1

>  <score_type>  (53) 
oracle

>  <origin>  (53) 
adg

>  <m_score__min__energy>  (53) 
-7.6200000000000001

>  <m_primary>  (53) 
energy

$$$$
55:0
     RDKit          3D

 43 44  0  0  0  0  0  0  0  0999 V2000
  139.7400  157.8600  136.7320 C   0  0  0  0  0  0  0  0  0  0  0  0
  140.4100  157.1330  135.6510 N   0  0  0  0  0  0  0  0  0  0  0  0
  139.8030  157.2500  134.3260 C   0  0  0  0  0  0  0  0  0  0  0  0
  139.8920  158.7290  133.9750 C   0  0  0  0  0  0  0  0  0  0  0  0
  141.0290  159.3120  134.5320 O   0  0  0  0  0  0  0  0  0  0  0  0
  141.5730  156.3600  135.8600 C   0  0  0  0  0  0  0  0  0  0  0  0
  141.7080  155.7480  136.9380 O   0  0  0  0  0  0  0  0  0  0  0  0
  142.5820  156.3250  134.7580 C   0  0  0  0  0  0  0  0  0  0  0  0
  143.4850  157.4140  134.8460 O   0  0  0  0  0  0  0  0  0  0  0  0
  143.7640  158.1900  133.7010 C   0  0  0  0  0  0  0  0  0  0  0  0
  142.8240  158.2520  132.8770 O   0  0  0  0  0  0  0  0  0  0  0  0
  145.0240  158.8170  133.5630 N   0  0  0  0  0  0  0  0  0  0  0  0
  145.2730  160.1330  133.6040 C   0  0  0  0  0  0  0  0  0  0  0  0
  144.3930  161.2660  133.7900 C   0  0  0  0  0  0  0  0  0  0  0  0
  142.9670  161.0950  133.6080 N   0  0  0  0  0  0  0  0  0  0  0  0
  144.7400  162.4260  134.1010 O   0  0  0  0  0  0  0  0  0  0  0  0
  146.6550  160.2820  133.4210 C   0  0  0  0  0  0  0  0  0  0  0  0
  147.2240  159.0550  133.2720 C   0  0  0  0  0  0  0  0  0  0  0  0
  148.5400  158.6760  133.0680 C   0  0  0  0  0  0  0  0  0  0  0  0
  148.8480  157.3370  132.9490 C   0  0  0  0  0  0  0  0  0  0  0  0
  147.8430  156.3960  133.0340 C   0  0  0  0  0  0  0  0  0  0  0  0
  148.1800  154.9360  132.9040 C   0  0  0  0  0  0  0  0  0  0  0  0
  147.1240  154.3190  132.2900 F   0  0  0  0  0  0  0  0  0  0  0  0
  148.3550  154.3890  134.1600 F   0  0  0  0  0  0  0  0  0  0  0  0
  149.3790  154.7580  132.2260 F   0  0  0  0  0  0  0  0  0  0  0  0
  146.5360  156.8140  133.2380 C   0  0  0  0  0  0  0  0  0  0  0  0
  146.1880  158.1430  133.3630 C   0  0  0  0  0  0  0  0  0  0  0  0
  140.0909  157.4792  137.7025 H   0  0  0  0  0  0  0  0  0  0  0  0
  139.9734  158.9320  136.6526 H   0  0  0  0  0  0  0  0  0  0  0  0
  138.6525  157.7147  136.6526 H   0  0  0  0  0  0  0  0  0  0  0  0
  140.3575  156.6456  133.5930 H   0  0  0  0  0  0  0  0  0  0  0  0
  138.7647  156.8870  134.3161 H   0  0  0  0  0  0  0  0  0  0  0  0
  139.9331  158.8362  132.8810 H   0  0  0  0  0  0  0  0  0  0  0  0
  139.0053  159.2373  134.3816 H   0  0  0  0  0  0  0  0  0  0  0  0
  141.7050  158.6280  134.6680 H   0  0  0  0  0  0  0  0  0  0  0  0
  143.1489  155.3845  134.8221 H   0  0  0  0  0  0  0  0  0  0  0  0
  142.0482  156.3958  133.7988 H   0  0  0  0  0  0  0  0  0  0  0  0
  142.3760  161.8640  133.2230 H   0  0  0  0  0  0  0  0  0  0  0  0
  142.5830  160.1690  133.8840 H   0  0  0  0  0  0  0  0  0  0  0  0
  147.1946  161.2403  133.4010 H   0  0  0  0  0  0  0  0  0  0  0  0
  149.3325  159.4359  133.0014 H   0  0  0  0  0  0  0  0  0  0  0  0
  149.8892  157.0212  132.7872 H   0  0  0  0  0  0  0  0  0  0  0  0
  145.7438  156.0536  133.3028 H   0  0  0  0  0  0  0  0  0  0  0  0
  1  2  1  0
  2  3  1  0
  3  4  1  0
  4  5  1  0
  2  6  1  0
  6  7  2  0
  6  8  1  0
  8  9  1  0
  9 10  1  0
 10 11  2  0
 10 12  1  0
 12 13  1  0
 13 14  1  0
 14 15  1  0
 14 16  2  0
 13 17  2  0
 17 18  1  0
 18 19  2  0
 19 20  1  0
 20 21  2  0
 21 22  1  0
 22 23  1  0
 22 24  1  0
 22 25  1  0
 21 26  1  0
 26 27  2  0
 27 12  1  0
 27 18  1  0
  1 28  1  0
  1 29  1  0
  1 30  1  0
  3 31  1  0
  3 32  1  0
  4 33  1  0
  4 34  1  0
  5 35  1  0
  8 36  1  0
  8 37  1  0
 15 38  1  0
 15 39  1  0
 17 40  1  0
 19 41  1  0
 20 42  1  0
 26 43  1  0
M  END
>  <smiles>  (54) 
CN(CCO)C(=O)COC(=O)n1c(C(N)=O)cc2ccc(C(F)(F)F)cc21

>  <score_type>  (54) 
oracle

>  <origin>  (54) 
adg

>  <m_score__min__energy>  (54) 
-6.5499999999999998

>  <m_primary>  (54) 
energy

$$$$
56:0
     RDKit          3D

 36 37  0  0  0  0  0  0  0  0999 V2000
  149.4650  156.9120  132.4700 N   0  0  0  0  0  0  0  0  0  0  0  0
  148.3100  156.2130  132.9880 C   0  0  0  0  0  0  0  0  0  0  0  0
  148.5150  155.0120  133.2740 O   0  0  0  0  0  0  0  0  0  0  0  0
  147.0580  156.9220  133.1320 C   0  0  0  0  0  0  0  0  0  0  0  0
  145.8420  156.2540  133.3190 C   0  0  0  0  0  0  0  0  0  0  0  0
  144.8300  157.1740  133.4230 C   0  0  0  0  0  0  0  0  0  0  0  0
  143.4730  157.0380  133.6110 C   0  0  0  0  0  0  0  0  0  0  0  0
  142.6690  158.1410  133.6810 C   0  0  0  0  0  0  0  0  0  0  0  0
  143.2320  159.3730  133.5610 C   0  0  0  0  0  0  0  0  0  0  0  0
  142.3640  160.5760  133.6350 C   0  0  0  0  0  0  0  0  0  0  0  0
  143.2150  161.6840  133.7190 F   0  0  0  0  0  0  0  0  0  0  0  0
  141.6100  160.5440  134.7840 F   0  0  0  0  0  0  0  0  0  0  0  0
  144.6020  159.5030  133.3710 C   0  0  0  0  0  0  0  0  0  0  0  0
  145.4490  158.4160  133.2960 C   0  0  0  0  0  0  0  0  0  0  0  0
  146.7800  158.2360  133.1230 N   0  0  0  0  0  0  0  0  0  0  0  0
  147.7130  159.3200  132.9570 C   0  0  0  0  0  0  0  0  0  0  0  0
  148.6820  159.3180  133.7530 O   0  0  0  0  0  0  0  0  0  0  0  0
  147.6210  160.3000  132.0410 O   0  0  0  0  0  0  0  0  0  0  0  0
  148.4610  161.2450  131.5170 C   0  0  0  0  0  0  0  0  0  0  0  0
  149.3280  160.9300  130.3670 C   0  0  0  0  0  0  0  0  0  0  0  0
  149.8190  159.5300  130.2240 C   0  0  0  0  0  0  0  0  0  0  0  0
  150.2280  158.9590  131.4480 O   0  0  0  0  0  0  0  0  0  0  0  0
  149.9840  157.5290  133.1320 H   0  0  0  0  0  0  0  0  0  0  0  0
  149.7520  156.7930  131.4790 H   0  0  0  0  0  0  0  0  0  0  0  0
  145.7176  155.1624  133.3739 H   0  0  0  0  0  0  0  0  0  0  0  0
  143.0327  156.0344  133.7055 H   0  0  0  0  0  0  0  0  0  0  0  0
  141.5847  158.0340  133.8319 H   0  0  0  0  0  0  0  0  0  0  0  0
  141.6983  160.6190  132.7604 H   0  0  0  0  0  0  0  0  0  0  0  0
  145.0287  160.5125  133.2766 H   0  0  0  0  0  0  0  0  0  0  0  0
  147.8288  162.0914  131.2106 H   0  0  0  0  0  0  0  0  0  0  0  0
  149.1837  161.4071  132.3303 H   0  0  0  0  0  0  0  0  0  0  0  0
  148.7631  161.1733  129.4551 H   0  0  0  0  0  0  0  0  0  0  0  0
  150.2378  161.5243  130.5378 H   0  0  0  0  0  0  0  0  0  0  0  0
  149.0084  158.9158  129.8047 H   0  0  0  0  0  0  0  0  0  0  0  0
  150.6989  159.5568  129.5644 H   0  0  0  0  0  0  0  0  0  0  0  0
  149.7500  159.3770  132.1950 H   0  0  0  0  0  0  0  0  0  0  0  0
  1  2  1  0
  2  3  2  0
  2  4  1  0
  4  5  2  0
  5  6  1  0
  6  7  2  0
  7  8  1  0
  8  9  2  0
  9 10  1  0
 10 11  1  0
 10 12  1  0
  9 13  1  0
 13 14  2  0
 14 15  1  0
 15 16  1  0
 16 17  2  0
 16 18  1  0
 18 19  1  0
 19 20  1  0
 20 21  1  0
 21 22  1  0
 15  4  1  0
 14  6  1  0
  1 23  1  0
  1 24  1  0
  5 25  1  0
  7 26  1  0
  8 27  1  0
 10 28  1  0
 13 29  1  0
 19 30  1  0
 19 31  1  0
 20 32  1  0
 20 33  1  0
 21 34  1  0
 21 35  1  0
 22 36  1  0
M  END
>  <smiles>  (55) 
NC(=O)c1cc2ccc(C(F)F)cc2n1C(=O)OCCCO

>  <score_type>  (55) 
oracle

>  <origin>  (55) 
adg

>  <m_score__min__energy>  (55) 
-5.9199999999999999

>  <m_primary>  (55) 
energy

$$$$
57:0
     RDKit          3D

 40 41  0  0  1  0  0  0  0  0999 V2000
  148.3580  153.3850  132.9370 C   0  0  0  0  0  0  0  0  0  0  0  0
  146.9230  153.7670  132.9900 C   0  0  0  0  0  0  0  0  0  0  0  0
  146.5920  155.0910  133.1360 C   0  0  0  0  0  0  0  0  0  0  0  0
  145.2560  155.4150  133.1810 C   0  0  0  0  0  0  0  0  0  0  0  0
  144.2810  154.4530  133.0850 C   0  0  0  0  0  0  0  0  0  0  0  0
  142.9140  154.5250  133.1040 C   0  0  0  0  0  0  0  0  0  0  0  0
  142.3770  153.2360  132.9690 C   0  0  0  0  0  0  0  0  0  0  0  0
  140.9560  153.0090  132.9550 C   0  0  0  0  0  0  0  0  0  0  0  0
  140.2630  151.8610  132.5250 N   0  0  0  0  0  0  0  0  0  0  0  0
  140.2170  153.9550  133.3840 O   0  0  0  0  0  0  0  0  0  0  0  0
  143.4240  152.4000  132.8700 N   0  0  0  0  0  0  0  0  0  0  0  0
  143.4150  151.0070  132.7200 C   0  0  0  0  0  0  0  0  0  0  0  0
  144.4310  150.4200  132.2430 O   0  0  0  0  0  0  0  0  0  0  0  0
  142.3690  150.1620  133.0510 O   0  0  0  0  0  0  0  0  0  0  0  0
  141.7730  149.2280  132.1820 C   0  0  0  0  0  0  0  0  0  0  0  0
  140.4160  149.0170  132.5520 O   0  0  0  0  0  0  0  0  0  0  0  0
  139.3680  149.1310  131.6860 C   0  0  0  0  0  0  0  0  0  0  0  0
  138.6060  150.1320  131.7950 O   0  0  0  0  0  0  0  0  0  0  0  0
  139.1080  148.1120  130.6280 C   0  0  1  0  0  0  0  0  0  0  0  0
  139.0470  148.8750  129.3050 C   0  0  0  0  0  0  0  0  0  0  0  0
  140.2020  147.1650  130.5120 N   0  0  0  0  0  0  0  0  0  0  0  0
  144.5840  153.1210  132.9390 C   0  0  0  0  0  0  0  0  0  0  0  0
  145.9240  152.7950  132.8930 C   0  0  0  0  0  0  0  0  0  0  0  0
  148.7479  153.2812  133.9603 H   0  0  0  0  0  0  0  0  0  0  0  0
  148.4632  152.4276  132.4057 H   0  0  0  0  0  0  0  0  0  0  0  0
  148.9253  154.1634  132.4057 H   0  0  0  0  0  0  0  0  0  0  0  0
  147.3684  155.8663  133.2143 H   0  0  0  0  0  0  0  0  0  0  0  0
  144.9620  156.4687  133.2965 H   0  0  0  0  0  0  0  0  0  0  0  0
  142.3278  155.4498  133.2088 H   0  0  0  0  0  0  0  0  0  0  0  0
  140.0390  151.0830  133.2010 H   0  0  0  0  0  0  0  0  0  0  0  0
  139.9700  151.8130  131.5040 H   0  0  0  0  0  0  0  0  0  0  0  0
  141.8144  149.6109  131.1516 H   0  0  0  0  0  0  0  0  0  0  0  0
  142.3178  148.2746  132.2476 H   0  0  0  0  0  0  0  0  0  0  0  0
  138.1871  147.5625  130.8730 H   0  0  0  0  0  0  0  0  0  0  0  0
  138.9608  149.9529  129.5070 H   0  0  0  0  0  0  0  0  0  0  0  0
  139.9634  148.6822  128.7279 H   0  0  0  0  0  0  0  0  0  0  0  0
  138.1728  148.5390  128.7279 H   0  0  0  0  0  0  0  0  0  0  0  0
  140.6620  147.4080  129.5830 H   0  0  0  0  0  0  0  0  0  0  0  0
  140.8990  147.2880  131.2610 H   0  0  0  0  0  0  0  0  0  0  0  0
  146.2139  151.7403  132.7767 H   0  0  0  0  0  0  0  0  0  0  0  0
  1  2  1  0
  2  3  2  0
  3  4  1  0
  4  5  2  0
  5  6  1  0
  6  7  2  0
  7  8  1  0
  8  9  1  0
  8 10  2  0
  7 11  1  0
 11 12  1  0
 12 13  2  0
 12 14  1  0
 14 15  1  0
 15 16  1  0
 16 17  1  0
 17 18  2  0
 17 19  1  0
 19 20  1  0
 19 21  1  0
 11 22  1  0
 22 23  2  0
 23  2  1  0
 22  5  1  0
  1 24  1  0
  1 25  1  0
  1 26  1  0
  3 27  1  0
  4 28  1  0
  6 29  1  0
  9 30  1  0
  9 31  1  0
 15 32  1  0
 15 33  1  0
 19 34  1  1
 20 35  1  0
 20 36  1  0
 20 37  1  0
 21 38  1  0
 21 39  1  0
 23 40  1  0
M  END
>  <smiles>  (56) 
Cc1ccc2cc(C(N)=O)n(C(=O)OCOC(=O)C(C)N)c2c1

>  <score_type>  (56) 
oracle

>  <origin>  (56) 
adg

>  <m_score__min__energy>  (56) 
-7.1100000000000003

>  <m_primary>  (56) 
energy

$$$$
58:0
     RDKit          3D

 42 43  0  0  0  0  0  0  0  0999 V2000
  149.5160  157.5130  132.2560 N   0  0  0  0  0  0  0  0  0  0  0  0
  148.8880  158.7410  132.5390 C   0  0  0  0  0  0  0  0  0  0  0  0
  149.6390  159.7690  132.4330 O   0  0  0  0  0  0  0  0  0  0  0  0
  147.5240  158.9700  132.9260 C   0  0  0  0  0  0  0  0  0  0  0  0
  147.0060  160.2630  133.0850 C   0  0  0  0  0  0  0  0  0  0  0  0
  145.6860  160.1920  133.4560 C   0  0  0  0  0  0  0  0  0  0  0  0
  144.7610  161.1770  133.7280 C   0  0  0  0  0  0  0  0  0  0  0  0
  143.4750  160.8340  134.0870 C   0  0  0  0  0  0  0  0  0  0  0  0
  143.1450  159.4980  134.1650 C   0  0  0  0  0  0  0  0  0  0  0  0
  141.7580  159.1550  134.5520 C   0  0  0  0  0  0  0  0  0  0  0  0
  141.3690  157.4230  134.3250 P   0  0  0  0  0  0  0  0  0  0  0  0
  140.0500  157.0430  134.9550 O   0  0  0  0  0  0  0  0  0  0  0  0
  141.3170  156.9660  132.6990 O   0  0  0  0  0  0  0  0  0  0  0  0
  142.5780  156.5100  135.0780 O   0  0  0  0  0  0  0  0  0  0  0  0
  144.1040  158.5150  133.8840 C   0  0  0  0  0  0  0  0  0  0  0  0
  145.3930  158.8480  133.5250 C   0  0  0  0  0  0  0  0  0  0  0  0
  146.5110  158.1310  133.2010 N   0  0  0  0  0  0  0  0  0  0  0  0
  146.5470  156.7260  133.1770 C   0  0  0  0  0  0  0  0  0  0  0  0
  147.5010  156.0150  132.7810 O   0  0  0  0  0  0  0  0  0  0  0  0
  145.4340  155.9830  133.6250 O   0  0  0  0  0  0  0  0  0  0  0  0
  145.6530  154.5700  133.7730 C   0  0  0  0  0  0  0  0  0  0  0  0
  144.4490  153.9150  134.3600 C   0  0  0  0  0  0  0  0  0  0  0  0
  143.0690  154.1630  133.2000 P   0  0  0  0  0  0  0  0  0  0  0  0
  142.9220  153.0150  132.2340 O   0  0  0  0  0  0  0  0  0  0  0  0
  143.3500  155.6160  132.3450 O   0  0  0  0  0  0  0  0  0  0  0  0
  141.6640  154.3850  134.1120 O   0  0  0  0  0  0  0  0  0  0  0  0
  149.9860  156.9830  133.0490 H   0  0  0  0  0  0  0  0  0  0  0  0
  149.5220  157.1340  131.2670 H   0  0  0  0  0  0  0  0  0  0  0  0
  147.5719  161.1943  132.9351 H   0  0  0  0  0  0  0  0  0  0  0  0
  145.0489  162.2364  133.6586 H   0  0  0  0  0  0  0  0  0  0  0  0
  142.7275  161.6105  134.3067 H   0  0  0  0  0  0  0  0  0  0  0  0
  141.6187  159.4082  135.6134 H   0  0  0  0  0  0  0  0  0  0  0  0
  141.0852  159.7290  133.8978 H   0  0  0  0  0  0  0  0  0  0  0  0
  141.6320  156.0230  132.6260 H   0  0  0  0  0  0  0  0  0  0  0  0
  143.1130  156.0660  134.3800 H   0  0  0  0  0  0  0  0  0  0  0  0
  143.8219  157.4539  133.9514 H   0  0  0  0  0  0  0  0  0  0  0  0
  145.8598  154.1302  132.7862 H   0  0  0  0  0  0  0  0  0  0  0  0
  146.5089  154.4106  134.4454 H   0  0  0  0  0  0  0  0  0  0  0  0
  144.6358  152.8396  134.4966 H   0  0  0  0  0  0  0  0  0  0  0  0
  144.2119  154.3503  135.3420 H   0  0  0  0  0  0  0  0  0  0  0  0
  143.3810  156.3550  133.0000 H   0  0  0  0  0  0  0  0  0  0  0  0
  141.3120  155.2830  133.9020 H   0  0  0  0  0  0  0  0  0  0  0  0
  1  2  1  0
  2  3  2  0
  2  4  1  0
  4  5  2  0
  5  6  1  0
  6  7  2  0
  7  8  1  0
  8  9  2  0
  9 10  1  0
 10 11  1  0
 11 12  2  0
 11 13  1  0
 11 14  1  0
  9 15  1  0
 15 16  2  0
 16 17  1  0
 17 18  1  0
 18 19  2  0
 18 20  1  0
 20 21  1  0
 21 22  1  0
 22 23  1  0
 23 24  2  0
 23 25  1  0
 23 26  1  0
 17  4  1  0
 16  6  1  0
  1 27  1  0
  1 28  1  0
  5 29  1  0
  7 30  1  0
  8 31  1  0
 10 32  1  0
 10 33  1  0
 13 34  1  0
 14 35  1  0
 15 36  1  0
 21 37  1  0
 21 38  1  0
 22 39  1  0
 22 40  1  0
 25 41  1  0
 26 42  1  0
M  END
>  <smiles>  (57) 
NC(=O)c1cc2ccc(CP(=O)(O)O)cc2n1C(=O)OCCP(=O)(O)O

>  <score_type>  (57) 
oracle

>  <origin>  (57) 
adg

>  <m_score__min__energy>  (57) 
-6.5700000000000003

>  <m_primary>  (57) 
energy

$$$$
59:0
     RDKit          3D

 41 42  0  0  1  0  0  0  0  0999 V2000
  149.9080  157.8940  132.0760 N   0  0  0  0  0  0  0  0  0  0  0  0
  149.0780  159.0980  132.0820 C   0  0  0  0  0  0  0  0  0  0  0  0
  149.6720  160.0720  131.5990 O   0  0  0  0  0  0  0  0  0  0  0  0
  147.7590  158.9990  132.6190 C   0  0  0  0  0  0  0  0  0  0  0  0
  146.9100  160.1330  132.6470 C   0  0  0  0  0  0  0  0  0  0  0  0
  145.7240  159.7650  133.2030 C   0  0  0  0  0  0  0  0  0  0  0  0
  144.5940  160.5000  133.4500 C   0  0  0  0  0  0  0  0  0  0  0  0
  143.4890  159.9370  134.0310 C   0  0  0  0  0  0  0  0  0  0  0  0
  143.5450  158.6100  134.3600 C   0  0  0  0  0  0  0  0  0  0  0  0
  142.3500  157.9530  135.0050 C   0  0  0  0  0  0  0  0  0  0  0  0
  141.2420  158.9230  135.1540 C   0  0  0  0  0  0  0  0  0  0  0  0
  140.6630  159.4550  134.1800 O   0  0  0  0  0  0  0  0  0  0  0  0
  140.8590  159.2280  136.4690 O   0  0  0  0  0  0  0  0  0  0  0  0
  144.7070  157.8730  134.1020 C   0  0  0  0  0  0  0  0  0  0  0  0
  145.8220  158.4260  133.5180 C   0  0  0  0  0  0  0  0  0  0  0  0
  147.0690  157.9600  133.1580 N   0  0  0  0  0  0  0  0  0  0  0  0
  147.4170  156.6190  133.3400 C   0  0  0  0  0  0  0  0  0  0  0  0
  147.8040  156.0080  132.2560 O   0  0  0  0  0  0  0  0  0  0  0  0
  147.4460  155.7390  134.4980 C   0  0  0  0  0  0  0  0  0  0  0  0
  146.9780  154.0350  134.1380 P   0  0  1  0  0  0  0  0  0  0  0  0
  145.9250  153.5740  135.0880 O   0  0  0  0  0  0  0  0  0  0  0  0
  146.3450  153.9000  132.5650 O   0  0  0  0  0  0  0  0  0  0  0  0
  148.3260  153.0140  134.2840 O   0  0  0  0  0  0  0  0  0  0  0  0
  148.9310  152.4580  133.1860 C   0  0  0  0  0  0  0  0  0  0  0  0
  148.9410  152.9460  132.0330 O   0  0  0  0  0  0  0  0  0  0  0  0
  149.6420  151.1550  133.3650 C   0  0  0  0  0  0  0  0  0  0  0  0
  150.0360  151.0200  134.6870 F   0  0  0  0  0  0  0  0  0  0  0  0
  150.8140  151.2030  132.6160 F   0  0  0  0  0  0  0  0  0  0  0  0
  148.8880  150.1080  132.9440 F   0  0  0  0  0  0  0  0  0  0  0  0
  150.8040  157.8610  132.6070 H   0  0  0  0  0  0  0  0  0  0  0  0
  149.5260  157.1080  131.5090 H   0  0  0  0  0  0  0  0  0  0  0  0
  147.1659  161.1386  132.2818 H   0  0  0  0  0  0  0  0  0  0  0  0
  144.5741  161.5651  133.1757 H   0  0  0  0  0  0  0  0  0  0  0  0
  142.5852  160.5326  134.2270 H   0  0  0  0  0  0  0  0  0  0  0  0
  142.0150  157.1146  134.3766 H   0  0  0  0  0  0  0  0  0  0  0  0
  142.6396  157.5883  136.0016 H   0  0  0  0  0  0  0  0  0  0  0  0
  139.8770  159.4230  136.6940 H   0  0  0  0  0  0  0  0  0  0  0  0
  144.7288  156.8083  134.3777 H   0  0  0  0  0  0  0  0  0  0  0  0
  148.4676  155.7381  134.9060 H   0  0  0  0  0  0  0  0  0  0  0  0
  146.7046  156.1281  135.2114 H   0  0  0  0  0  0  0  0  0  0  0  0
  147.0070  154.0090  131.8660 H   0  0  0  0  0  0  0  0  0  0  0  0
  1  2  1  0
  2  3  2  0
  2  4  1  0
  4  5  2  0
  5  6  1  0
  6  7  2  0
  7  8  1  0
  8  9  2  0
  9 10  1  0
 10 11  1  0
 11 12  2  0
 11 13  1  0
  9 14  1  0
 14 15  2  0
 15 16  1  0
 16 17  1  0
 17 18  2  0
 17 19  1  0
 19 20  1  0
 20 21  2  0
 20 22  1  1
 20 23  1  0
 23 24  1  0
 24 25  2  0
 24 26  1  0
 26 27  1  0
 26 28  1  0
 26 29  1  0
 16  4  1  0
 15  6  1  0
  1 30  1  0
  1 31  1  0
  5 32  1  0
  7 33  1  0
  8 34  1  0
 10 35  1  0
 10 36  1  0
 13 37  1  0
 14 38  1  0
 19 39  1  0
 19 40  1  0
 22 41  1  0
M  END
>  <smiles>  (58) 
NC(=O)c1cc2ccc(CC(=O)O)cc2n1C(=O)CP(=O)(O)OC(=O)C(F)(F)F

>  <score_type>  (58) 
oracle

>  <origin>  (58) 
adg

>  <m_score__min__energy>  (58) 
-6.96

>  <m_primary>  (58) 
energy

$$$$
60:0
     RDKit          3D

 37 38  0  0  1  0  0  0  0  0999 V2000
  146.1880  162.2830  134.4430 N   0  0  0  0  0  0  0  0  0  0  0  0
  145.1170  161.4550  133.9310 C   0  0  0  0  0  0  0  0  0  0  0  0
  144.0420  162.0670  133.7330 O   0  0  0  0  0  0  0  0  0  0  0  0
  145.3490  160.0470  133.6940 C   0  0  0  0  0  0  0  0  0  0  0  0
  144.3010  159.1200  133.6650 C   0  0  0  0  0  0  0  0  0  0  0  0
  144.8090  157.8670  133.4240 C   0  0  0  0  0  0  0  0  0  0  0  0
  144.1820  156.6590  133.3080 C   0  0  0  0  0  0  0  0  0  0  0  0
  144.9720  155.5430  133.0580 C   0  0  0  0  0  0  0  0  0  0  0  0
  146.3290  155.6310  132.9320 C   0  0  0  0  0  0  0  0  0  0  0  0
  147.1450  154.5180  132.6980 N   0  0  0  0  0  0  0  0  0  0  0  0
  147.6090  153.5840  133.7060 C   0  0  2  0  0  0  0  0  0  0  0  0
  148.0280  154.2770  134.9660 C   0  0  0  0  0  0  0  0  0  0  0  0
  147.8650  153.3590  136.1200 C   0  0  0  0  0  0  0  0  0  0  0  0
  146.9520  153.3960  136.9510 O   0  0  0  0  0  0  0  0  0  0  0  0
  148.8350  152.3550  136.2880 O   0  0  0  0  0  0  0  0  0  0  0  0
  148.7180  152.7490  133.2000 C   0  0  0  0  0  0  0  0  0  0  0  0
  149.2520  153.1300  132.1060 O   0  0  0  0  0  0  0  0  0  0  0  0
  149.2200  151.6260  133.7810 O   0  0  0  0  0  0  0  0  0  0  0  0
  146.9040  156.8860  133.0600 C   0  0  0  0  0  0  0  0  0  0  0  0
  146.1850  158.0330  133.3050 C   0  0  0  0  0  0  0  0  0  0  0  0
  146.4650  159.3490  133.4740 N   0  0  0  0  0  0  0  0  0  0  0  0
  147.7750  159.8630  133.4150 C   0  0  0  0  0  0  0  0  0  0  0  0
  147.9940  160.8300  132.6110 O   0  0  0  0  0  0  0  0  0  0  0  0
  148.8620  159.4340  134.1330 O   0  0  0  0  0  0  0  0  0  0  0  0
  146.0080  163.0290  135.1440 H   0  0  0  0  0  0  0  0  0  0  0  0
  147.1530  162.1420  134.1160 H   0  0  0  0  0  0  0  0  0  0  0  0
  143.2371  159.3577  133.8122 H   0  0  0  0  0  0  0  0  0  0  0  0
  143.0901  156.5724  133.4089 H   0  0  0  0  0  0  0  0  0  0  0  0
  144.4897  154.5594  132.9587 H   0  0  0  0  0  0  0  0  0  0  0  0
  147.4760  154.3070  131.7090 H   0  0  0  0  0  0  0  0  0  0  0  0
  146.7545  152.9327  133.9420 H   0  0  0  0  0  0  0  0  0  0  0  0
  149.0829  154.5778  134.8843 H   0  0  0  0  0  0  0  0  0  0  0  0
  147.4004  155.1676  135.1177 H   0  0  0  0  0  0  0  0  0  0  0  0
  148.7320  151.4270  135.8780 H   0  0  0  0  0  0  0  0  0  0  0  0
  148.7110  151.1040  134.4800 H   0  0  0  0  0  0  0  0  0  0  0  0
  147.9963  156.9693  132.9601 H   0  0  0  0  0  0  0  0  0  0  0  0
  149.2620  158.5100  134.0890 H   0  0  0  0  0  0  0  0  0  0  0  0
  1  2  1  0
  2  3  2  0
  2  4  1  0
  4  5  2  0
  5  6  1  0
  6  7  2  0
  7  8  1  0
  8  9  2  0
  9 10  1  0
 10 11  1  0
 11 12  1  0
 12 13  1  0
 13 14  2  0
 13 15  1  0
 11 16  1  0
 16 17  2  0
 16 18  1  0
  9 19  1  0
 19 20  2  0
 20 21  1  0
 21 22  1  0
 22 23  2  0
 22 24  1  0
 21  4  1  0
 20  6  1  0
  1 25  1  0
  1 26  1  0
  5 27  1  0
  7 28  1  0
  8 29  1  0
 10 30  1  0
 11 31  1  1
 12 32  1  0
 12 33  1  0
 15 34  1  0
 18 35  1  0
 19 36  1  0
 24 37  1  0
M  END
>  <smiles>  (59) 
NC(=O)c1cc2ccc(NC(CC(=O)O)C(=O)O)cc2n1C(=O)O

>  <score_type>  (59) 
oracle

>  <origin>  (59) 
adg

>  <m_score__min__energy>  (59) 
-6.6500000000000004

>  <m_primary>  (59) 
energy

$$$$
61:0
     RDKit          3D

 48 50  0  0  1  0  0  0  0  0999 V2000
  139.0400  155.6750  132.6230 N   0  0  0  0  0  0  0  0  0  0  0  0
  140.0850  155.7400  133.6250 C   0  0  0  0  0  0  0  0  0  0  0  0
  139.8300  156.4790  134.5930 O   0  0  0  0  0  0  0  0  0  0  0  0
  141.2950  154.9700  133.4280 C   0  0  0  0  0  0  0  0  0  0  0  0
  141.2770  153.5800  133.2520 C   0  0  0  0  0  0  0  0  0  0  0  0
  142.5580  153.1250  133.0900 C   0  0  0  0  0  0  0  0  0  0  0  0
  143.0610  151.8600  132.8870 C   0  0  0  0  0  0  0  0  0  0  0  0
  144.4190  151.6710  132.7520 C   0  0  0  0  0  0  0  0  0  0  0  0
  145.2570  152.7640  132.8220 C   0  0  0  0  0  0  0  0  0  0  0  0
  146.6950  152.6100  132.6850 C   0  0  0  0  0  0  0  0  0  0  0  0
  147.8940  152.4810  132.5500 C   0  0  0  0  0  0  0  0  0  0  0  0
  149.3400  152.3250  132.3620 C   0  0  0  0  0  0  0  0  0  0  0  0
  149.8570  151.1320  131.6440 C   0  0  0  0  0  0  0  0  0  0  0  0
  149.9990  151.1190  133.1090 C   0  0  0  0  0  0  0  0  0  0  0  0
  144.7180  154.0300  133.0280 C   0  0  0  0  0  0  0  0  0  0  0  0
  143.3650  154.2520  133.1680 C   0  0  0  0  0  0  0  0  0  0  0  0
  142.5810  155.3450  133.3710 N   0  0  0  0  0  0  0  0  0  0  0  0
  143.0990  156.6880  133.5000 C   0  0  0  0  0  0  0  0  0  0  0  0
  144.1750  156.8990  132.8880 O   0  0  0  0  0  0  0  0  0  0  0  0
  142.5310  157.6770  134.2020 O   0  0  0  0  0  0  0  0  0  0  0  0
  142.6340  159.0280  134.2840 C   0  0  0  0  0  0  0  0  0  0  0  0
  141.3890  159.8300  134.3110 C   0  0  2  0  0  0  0  0  0  0  0  0
  140.3470  158.9740  134.7250 O   0  0  0  0  0  0  0  0  0  0  0  0
  141.0600  160.4770  133.0150 C   0  0  0  0  0  0  0  0  0  0  0  0
  139.6660  160.3480  132.7650 O   0  0  0  0  0  0  0  0  0  0  0  0
  139.3870  158.8860  131.9340 P   0  0  0  0  0  0  0  0  0  0  0  0
  138.2190  158.2110  132.6110 O   0  0  0  0  0  0  0  0  0  0  0  0
  140.7210  157.8580  132.0740 O   0  0  0  0  0  0  0  0  0  0  0  0
  138.9750  159.1710  130.3340 O   0  0  0  0  0  0  0  0  0  0  0  0
  139.0970  156.3880  131.8530 H   0  0  0  0  0  0  0  0  0  0  0  0
  138.2870  154.9550  132.6860 H   0  0  0  0  0  0  0  0  0  0  0  0
  140.3739  152.9520  133.2451 H   0  0  0  0  0  0  0  0  0  0  0  0
  142.3782  150.9993  132.8325 H   0  0  0  0  0  0  0  0  0  0  0  0
  144.8288  150.6630  132.5907 H   0  0  0  0  0  0  0  0  0  0  0  0
  149.5001  153.4095  132.2716 H   0  0  0  0  0  0  0  0  0  0  0  0
  149.1471  150.4415  131.1652 H   0  0  0  0  0  0  0  0  0  0  0  0
  150.5689  150.9997  130.8159 H   0  0  0  0  0  0  0  0  0  0  0  0
  149.3834  150.4420  133.7194 H   0  0  0  0  0  0  0  0  0  0  0  0
  150.8307  150.9921  133.8176 H   0  0  0  0  0  0  0  0  0  0  0  0
  145.4010  154.8906  133.0814 H   0  0  0  0  0  0  0  0  0  0  0  0
  143.1878  159.2563  135.2066 H   0  0  0  0  0  0  0  0  0  0  0  0
  143.1223  159.3191  133.3423 H   0  0  0  0  0  0  0  0  0  0  0  0
  141.5294  160.6662  135.0117 H   0  0  0  0  0  0  0  0  0  0  0  0
  139.9910  158.5250  133.9200 H   0  0  0  0  0  0  0  0  0  0  0  0
  141.3284  161.5429  133.0580 H   0  0  0  0  0  0  0  0  0  0  0  0
  141.6256  159.9906  132.2066 H   0  0  0  0  0  0  0  0  0  0  0  0
  140.9290  157.6650  133.0000 H   0  0  0  0  0  0  0  0  0  0  0  0
  138.3360  158.5140  129.9750 H   0  0  0  0  0  0  0  0  0  0  0  0
  1  2  1  0
  2  3  2  0
  2  4  1  0
  4  5  2  0
  5  6  1  0
  6  7  2  0
  7  8  1  0
  8  9  2  0
  9 10  1  0
 10 11  3  0
 11 12  1  0
 12 13  1  0
 13 14  1  0
  9 15  1  0
 15 16  2  0
 16 17  1  0
 17 18  1  0
 18 19  2  0
 18 20  1  0
 20 21  1  0
 21 22  1  0
 22 23  1  0
 22 24  1  0
 24 25  1  0
 25 26  1  0
 26 27  2  0
 26 28  1  0
 26 29  1  0
 17  4  1  0
 16  6  1  0
 14 12  1  0
  1 30  1  0
  1 31  1  0
  5 32  1  0
  7 33  1  0
  8 34  1  0
 12 35  1  0
 13 36  1  0
 13 37  1  0
 14 38  1  0
 14 39  1  0
 15 40  1  0
 21 41  1  0
 21 42  1  0
 22 43  1  1
 23 44  1  0
 24 45  1  0
 24 46  1  0
 28 47  1  0
 29 48  1  0
M  END
>  <smiles>  (60) 
NC(=O)c1cc2ccc(C#CC3CC3)cc2n1C(=O)OCC(O)COP(=O)(O)O

>  <score_type>  (60) 
oracle

>  <origin>  (60) 
adg

>  <m_score__min__energy>  (60) 
-8.1999999999999993

>  <m_primary>  (60) 
energy

$$$$
62:0
     RDKit          3D

 44 46  0  0  0  0  0  0  0  0999 V2000
  149.1290  160.5150  131.1470 C   0  0  0  0  0  0  0  0  0  0  0  0
  148.3440  159.5270  131.8870 N   0  0  0  0  0  0  0  0  0  0  0  0
  147.0620  159.7390  132.2340 C   0  0  0  0  0  0  0  0  0  0  0  0
  146.3450  158.7700  132.9400 C   0  0  0  0  0  0  0  0  0  0  0  0
  144.9560  159.0180  133.3050 C   0  0  0  0  0  0  0  0  0  0  0  0
  144.6290  160.3050  133.6760 C   0  0  0  0  0  0  0  0  0  0  0  0
  143.3280  160.5800  134.0290 C   0  0  0  0  0  0  0  0  0  0  0  0
  142.3840  159.5730  134.0060 C   0  0  0  0  0  0  0  0  0  0  0  0
  141.0440  159.5810  134.3060 C   0  0  0  0  0  0  0  0  0  0  0  0
  140.5220  158.2910  134.1230 C   0  0  0  0  0  0  0  0  0  0  0  0
  139.1330  157.9850  134.3610 C   0  0  0  0  0  0  0  0  0  0  0  0
  138.3610  157.3360  133.3260 N   0  0  0  0  0  0  0  0  0  0  0  0
  138.4890  158.2300  135.4080 O   0  0  0  0  0  0  0  0  0  0  0  0
  141.5460  157.5220  133.7180 N   0  0  0  0  0  0  0  0  0  0  0  0
  141.4900  156.1360  133.4100 C   0  0  0  0  0  0  0  0  0  0  0  0
  140.4840  155.5300  133.0030 O   0  0  0  0  0  0  0  0  0  0  0  0
  142.6400  155.3580  133.5640 O   0  0  0  0  0  0  0  0  0  0  0  0
  142.7210  154.0340  133.0970 C   0  0  0  0  0  0  0  0  0  0  0  0
  143.9540  153.7380  132.3050 C   0  0  0  0  0  0  0  0  0  0  0  0
  144.3660  154.8290  131.3890 C   0  0  0  0  0  0  0  0  0  0  0  0
  144.3530  154.5530  130.1810 O   0  0  0  0  0  0  0  0  0  0  0  0
  142.6680  158.2740  133.6420 C   0  0  0  0  0  0  0  0  0  0  0  0
  143.9900  158.0220  133.2900 C   0  0  0  0  0  0  0  0  0  0  0  0
  146.9620  157.5830  133.2870 C   0  0  0  0  0  0  0  0  0  0  0  0
  148.2870  157.4050  132.9110 C   0  0  0  0  0  0  0  0  0  0  0  0
  148.9720  158.3770  132.2120 C   0  0  0  0  0  0  0  0  0  0  0  0
  150.1810  158.2010  131.8750 O   0  0  0  0  0  0  0  0  0  0  0  0
  149.6521  161.1734  131.8561 H   0  0  0  0  0  0  0  0  0  0  0  0
  149.8658  159.9986  130.5142 H   0  0  0  0  0  0  0  0  0  0  0  0
  148.4594  161.1160  130.5142 H   0  0  0  0  0  0  0  0  0  0  0  0
  146.5730  160.6852  131.9590 H   0  0  0  0  0  0  0  0  0  0  0  0
  145.3931  161.0962  133.6895 H   0  0  0  0  0  0  0  0  0  0  0  0
  143.0410  161.5988  134.3286 H   0  0  0  0  0  0  0  0  0  0  0  0
  140.4705  160.4593  134.6373 H   0  0  0  0  0  0  0  0  0  0  0  0
  138.6580  156.4020  132.9600 H   0  0  0  0  0  0  0  0  0  0  0  0
  137.5270  157.8460  132.9880 H   0  0  0  0  0  0  0  0  0  0  0  0
  142.6989  153.3598  133.9659 H   0  0  0  0  0  0  0  0  0  0  0  0
  141.8669  153.8847  132.4200 H   0  0  0  0  0  0  0  0  0  0  0  0
  144.7783  153.5486  133.0083 H   0  0  0  0  0  0  0  0  0  0  0  0
  143.7224  152.8670  131.6743 H   0  0  0  0  0  0  0  0  0  0  0  0
  144.6645  155.8211  131.7587 H   0  0  0  0  0  0  0  0  0  0  0  0
  144.2780  157.0034  132.9910 H   0  0  0  0  0  0  0  0  0  0  0  0
  146.4206  156.8037  133.8435 H   0  0  0  0  0  0  0  0  0  0  0  0
  148.8010  156.4693  133.1761 H   0  0  0  0  0  0  0  0  0  0  0  0
  1  2  1  0
  2  3  1  0
  3  4  2  0
  4  5  1  0
  5  6  2  0
  6  7  1  0
  7  8  2  0
  8  9  1  0
  9 10  2  0
 10 11  1  0
 11 12  1  0
 11 13  2  0
 10 14  1  0
 14 15  1  0
 15 16  2  0
 15 17  1  0
 17 18  1  0
 18 19  1  0
 19 20  1  0
 20 21  2  0
 14 22  1  0
 22 23  2  0
  4 24  1  0
 24 25  2  0
 25 26  1  0
 26 27  2  0
 26  2  1  0
 23  5  1  0
 22  8  1  0
  1 28  1  0
  1 29  1  0
  1 30  1  0
  3 31  1  0
  6 32  1  0
  7 33  1  0
  9 34  1  0
 12 35  1  0
 12 36  1  0
 18 37  1  0
 18 38  1  0
 19 39  1  0
 19 40  1  0
 20 41  1  0
 23 42  1  0
 24 43  1  0
 25 44  1  0
M  END
>  <smiles>  (61) 
Cn1cc(-c2ccc3cc(C(N)=O)n(C(=O)OCCC=O)c3c2)ccc1=O

>  <score_type>  (61) 
oracle

>  <origin>  (61) 
adg

>  <m_score__min__energy>  (61) 
-8.0199999999999996

>  <m_primary>  (61) 
energy

$$$$
63:0
     RDKit          3D

 35 36  0  0  0  0  0  0  0  0999 V2000
  149.4390  157.3280  132.3280 N   0  0  0  0  0  0  0  0  0  0  0  0
  148.9290  158.6840  132.4600 C   0  0  0  0  0  0  0  0  0  0  0  0
  149.7820  159.5480  132.2230 O   0  0  0  0  0  0  0  0  0  0  0  0
  147.5480  158.8480  132.8380 C   0  0  0  0  0  0  0  0  0  0  0  0
  146.9840  160.1150  133.0180 C   0  0  0  0  0  0  0  0  0  0  0  0
  145.6770  159.9680  133.3700 C   0  0  0  0  0  0  0  0  0  0  0  0
  144.7210  160.9010  133.6490 C   0  0  0  0  0  0  0  0  0  0  0  0
  143.4390  160.5300  133.9890 C   0  0  0  0  0  0  0  0  0  0  0  0
  143.1630  159.1860  134.0350 C   0  0  0  0  0  0  0  0  0  0  0  0
  141.8270  158.7630  134.3870 C   0  0  0  0  0  0  0  0  0  0  0  0
  140.7100  158.3990  134.6660 C   0  0  0  0  0  0  0  0  0  0  0  0
  139.3750  157.9870  135.0040 C   0  0  0  0  0  0  0  0  0  0  0  0
  138.5440  157.6130  134.1380 O   0  0  0  0  0  0  0  0  0  0  0  0
  138.9600  157.9910  136.3330 O   0  0  0  0  0  0  0  0  0  0  0  0
  144.1480  158.2420  133.7470 C   0  0  0  0  0  0  0  0  0  0  0  0
  145.4420  158.6120  133.4040 C   0  0  0  0  0  0  0  0  0  0  0  0
  146.5790  157.9260  133.0810 N   0  0  0  0  0  0  0  0  0  0  0  0
  146.6140  156.5340  133.0420 C   0  0  0  0  0  0  0  0  0  0  0  0
  146.5320  155.9910  131.8840 O   0  0  0  0  0  0  0  0  0  0  0  0
  146.7320  155.5470  134.1250 C   0  0  0  0  0  0  0  0  0  0  0  0
  147.8710  154.1930  133.5670 P   0  0  0  0  0  0  0  0  0  0  0  0
  148.4850  153.4960  134.7570 O   0  0  0  0  0  0  0  0  0  0  0  0
  147.0030  153.0900  132.6550 O   0  0  0  0  0  0  0  0  0  0  0  0
  149.1190  154.8690  132.6590 O   0  0  0  0  0  0  0  0  0  0  0  0
  149.2620  156.7670  131.4710 H   0  0  0  0  0  0  0  0  0  0  0  0
  149.9820  156.9900  133.1540 H   0  0  0  0  0  0  0  0  0  0  0  0
  147.5101  161.0732  132.8953 H   0  0  0  0  0  0  0  0  0  0  0  0
  144.9791  161.9692  133.6015 H   0  0  0  0  0  0  0  0  0  0  0  0
  142.6671  161.2805  134.2147 H   0  0  0  0  0  0  0  0  0  0  0  0
  139.0180  158.8630  136.8760 H   0  0  0  0  0  0  0  0  0  0  0  0
  143.8927  157.1730  133.7928 H   0  0  0  0  0  0  0  0  0  0  0  0
  147.1424  156.0300  135.0240 H   0  0  0  0  0  0  0  0  0  0  0  0
  145.7423  155.1314  134.3653 H   0  0  0  0  0  0  0  0  0  0  0  0
  146.5990  153.5560  131.8660 H   0  0  0  0  0  0  0  0  0  0  0  0
  148.7680  155.4200  131.8990 H   0  0  0  0  0  0  0  0  0  0  0  0
  1  2  1  0
  2  3  2  0
  2  4  1  0
  4  5  2  0
  5  6  1  0
  6  7  2  0
  7  8  1  0
  8  9  2  0
  9 10  1  0
 10 11  3  0
 11 12  1  0
 12 13  2  0
 12 14  1  0
  9 15  1  0
 15 16  2  0
 16 17  1  0
 17 18  1  0
 18 19  2  0
 18 20  1  0
 20 21  1  0
 21 22  2  0
 21 23  1  0
 21 24  1  0
 17  4  1  0
 16  6  1  0
  1 25  1  0
  1 26  1  0
  5 27  1  0
  7 28  1  0
  8 29  1  0
 14 30  1  0
 15 31  1  0
 20 32  1  0
 20 33  1  0
 23 34  1  0
 24 35  1  0
M  END
>  <smiles>  (62) 
NC(=O)c1cc2ccc(C#CC(=O)O)cc2n1C(=O)CP(=O)(O)O

>  <score_type>  (62) 
oracle

>  <origin>  (62) 
adg

>  <m_score__min__energy>  (62) 
-7.9199999999999999

>  <m_primary>  (62) 
energy

$$$$
64:0
     RDKit          3D

 48 49  0  0  0  0  0  0  0  0999 V2000
  142.2440  159.4940  133.9120 C   0  0  0  0  0  0  0  0  0  0  0  0
  143.7060  159.6260  133.8140 N   0  0  0  0  0  0  0  0  0  0  0  0
  144.3280  160.9190  134.0040 C   0  0  0  0  0  0  0  0  0  0  0  0
  144.5150  158.4950  133.5320 C   0  0  0  0  0  0  0  0  0  0  0  0
  145.8640  158.6440  133.3190 C   0  0  0  0  0  0  0  0  0  0  0  0
  146.5910  157.5090  133.0510 C   0  0  0  0  0  0  0  0  0  0  0  0
  145.9860  156.2900  133.0030 C   0  0  0  0  0  0  0  0  0  0  0  0
  146.4970  155.0490  132.7590 C   0  0  0  0  0  0  0  0  0  0  0  0
  145.4660  154.0940  132.8180 C   0  0  0  0  0  0  0  0  0  0  0  0
  145.7540  152.6950  132.5930 C   0  0  0  0  0  0  0  0  0  0  0  0
  147.1510  152.2530  132.5990 N   0  0  0  0  0  0  0  0  0  0  0  0
  144.9660  151.7670  132.3850 O   0  0  0  0  0  0  0  0  0  0  0  0
  144.3230  154.7670  133.0980 N   0  0  0  0  0  0  0  0  0  0  0  0
  143.0850  154.1500  133.2360 C   0  0  0  0  0  0  0  0  0  0  0  0
  142.2760  154.6360  134.1040 O   0  0  0  0  0  0  0  0  0  0  0  0
  142.5480  153.0410  132.5580 N   0  0  0  0  0  0  0  0  0  0  0  0
  141.1860  152.6380  132.9510 C   0  0  0  0  0  0  0  0  0  0  0  0
  141.2240  151.7700  134.1790 C   0  0  0  0  0  0  0  0  0  0  0  0
  141.1360  150.4120  133.7950 O   0  0  0  0  0  0  0  0  0  0  0  0
  141.7500  149.8590  132.6900 C   0  0  0  0  0  0  0  0  0  0  0  0
  142.7870  150.3640  132.1900 O   0  0  0  0  0  0  0  0  0  0  0  0
  141.1260  148.6230  132.1060 C   0  0  0  0  0  0  0  0  0  0  0  0
  140.1110  148.9930  131.0510 C   0  0  0  0  0  0  0  0  0  0  0  0
  138.8090  150.0490  131.7420 S   0  0  0  0  0  0  0  0  0  0  0  0
  144.6250  156.0900  133.2120 C   0  0  0  0  0  0  0  0  0  0  0  0
  143.9160  157.2400  133.4790 C   0  0  0  0  0  0  0  0  0  0  0  0
  141.9484  159.4673  134.9712 H   0  0  0  0  0  0  0  0  0  0  0  0
  141.7645  160.3525  133.4190 H   0  0  0  0  0  0  0  0  0  0  0  0
  141.9260  158.5635  133.4190 H   0  0  0  0  0  0  0  0  0  0  0  0
  144.4266  161.1239  135.0802 H   0  0  0  0  0  0  0  0  0  0  0  0
  145.3245  160.9186  133.5381 H   0  0  0  0  0  0  0  0  0  0  0  0
  143.7057  161.6973  133.5381 H   0  0  0  0  0  0  0  0  0  0  0  0
  146.3435  159.6331  133.3613 H   0  0  0  0  0  0  0  0  0  0  0  0
  147.6738  157.5861  132.8732 H   0  0  0  0  0  0  0  0  0  0  0  0
  147.5539  154.8287  132.5483 H   0  0  0  0  0  0  0  0  0  0  0  0
  147.7480  152.6850  131.8580 H   0  0  0  0  0  0  0  0  0  0  0  0
  147.4690  151.5670  133.3010 H   0  0  0  0  0  0  0  0  0  0  0  0
  143.0060  152.5270  131.8580 H   0  0  0  0  0  0  0  0  0  0  0  0
  140.5897  153.5378  133.1627 H   0  0  0  0  0  0  0  0  0  0  0  0
  140.7337  152.0668  132.1270 H   0  0  0  0  0  0  0  0  0  0  0  0
  142.1674  151.9387  134.7190 H   0  0  0  0  0  0  0  0  0  0  0  0
  140.3779  152.0228  134.8349 H   0  0  0  0  0  0  0  0  0  0  0  0
  141.9111  148.0011  131.6511 H   0  0  0  0  0  0  0  0  0  0  0  0
  140.6196  148.0662  132.9082 H   0  0  0  0  0  0  0  0  0  0  0  0
  140.6181  149.5330  130.2379 H   0  0  0  0  0  0  0  0  0  0  0  0
  139.6483  148.0700  130.6715 H   0  0  0  0  0  0  0  0  0  0  0  0
  139.1090  150.4410  133.0510 H   0  0  0  0  0  0  0  0  0  0  0  0
  142.8333  157.1636  133.6575 H   0  0  0  0  0  0  0  0  0  0  0  0
  1  2  1  0
  2  3  1  0
  2  4  1  0
  4  5  2  0
  5  6  1  0
  6  7  2  0
  7  8  1  0
  8  9  2  0
  9 10  1  0
 10 11  1  0
 10 12  2  0
  9 13  1  0
 13 14  1  0
 14 15  2  0
 14 16  1  0
 16 17  1  0
 17 18  1  0
 18 19  1  0
 19 20  1  0
 20 21  2  0
 20 22  1  0
 22 23  1  0
 23 24  1  0
 13 25  1  0
 25 26  2  0
 26  4  1  0
 25  7  1  0
  1 27  1  0
  1 28  1  0
  1 29  1  0
  3 30  1  0
  3 31  1  0
  3 32  1  0
  5 33  1  0
  6 34  1  0
  8 35  1  0
 11 36  1  0
 11 37  1  0
 16 38  1  0
 17 39  1  0
 17 40  1  0
 18 41  1  0
 18 42  1  0
 22 43  1  0
 22 44  1  0
 23 45  1  0
 23 46  1  0
 24 47  1  0
 26 48  1  0
M  END
>  <smiles>  (63) 
CN(C)c1ccc2cc(C(N)=O)n(C(=O)NCCOC(=O)CCS)c2c1

>  <score_type>  (63) 
oracle

>  <origin>  (63) 
adg

>  <m_score__min__energy>  (63) 
-7.0899999999999999

>  <m_primary>  (63) 
energy

$$$$
65:0
     RDKit          3D

 70 74  0  0  0  0  0  0  0  0999 V2000
  150.0880  160.0940  131.8780 N   0  0  0  0  0  0  0  0  0  0  0  0
  148.7420  160.6000  131.9080 C   0  0  0  0  0  0  0  0  0  0  0  0
  148.6260  161.8070  131.6250 O   0  0  0  0  0  0  0  0  0  0  0  0
  147.6630  159.6950  132.2520 C   0  0  0  0  0  0  0  0  0  0  0  0
  146.3470  160.1390  132.4470 C   0  0  0  0  0  0  0  0  0  0  0  0
  145.5530  159.0650  132.7600 C   0  0  0  0  0  0  0  0  0  0  0  0
  144.2090  158.9790  133.0380 C   0  0  0  0  0  0  0  0  0  0  0  0
  143.6520  157.7520  133.3250 C   0  0  0  0  0  0  0  0  0  0  0  0
  144.4560  156.6350  133.3290 C   0  0  0  0  0  0  0  0  0  0  0  0
  143.8160  155.3610  133.6410 C   0  0  0  0  0  0  0  0  0  0  0  0
  142.4590  155.3510  133.9650 C   0  0  0  0  0  0  0  0  0  0  0  0
  141.8360  154.1460  134.2670 C   0  0  0  0  0  0  0  0  0  0  0  0
  142.5320  152.9420  134.2540 C   0  0  0  0  0  0  0  0  0  0  0  0
  141.8080  151.7380  134.5820 C   0  0  0  0  0  0  0  0  0  0  0  0
  141.4240  151.5780  135.7670 O   0  0  0  0  0  0  0  0  0  0  0  0
  141.4930  150.7080  133.6580 N   0  0  0  0  0  0  0  0  0  0  0  0
  140.7620  149.5420  134.0960 C   0  0  0  0  0  0  0  0  0  0  0  0
  139.5240  149.2580  133.2790 C   0  0  0  0  0  0  0  0  0  0  0  0
  139.7330  149.6920  131.8720 C   0  0  0  0  0  0  0  0  0  0  0  0
  138.9350  148.9530  130.9150 N   0  0  0  0  0  0  0  0  0  0  0  0
  139.5700  147.7130  130.5450 C   0  0  0  0  0  0  0  0  0  0  0  0
  138.5750  146.9910  129.6310 C   0  0  0  0  0  0  0  0  0  0  0  0
  138.6420  147.7470  128.3960 N   0  0  0  0  0  0  0  0  0  0  0  0
  138.7370  147.0900  127.1400 C   0  0  0  0  0  0  0  0  0  0  0  0
  138.7630  145.8330  127.0770 O   0  0  0  0  0  0  0  0  0  0  0  0
  138.8000  147.8290  125.9670 O   0  0  0  0  0  0  0  0  0  0  0  0
  138.6120  149.1680  128.4620 C   0  0  0  0  0  0  0  0  0  0  0  0
  138.5650  149.7690  129.8020 C   0  0  0  0  0  0  0  0  0  0  0  0
  141.1750  149.6130  131.5050 C   0  0  0  0  0  0  0  0  0  0  0  0
  141.8710  150.7550  132.2550 C   0  0  0  0  0  0  0  0  0  0  0  0
  143.8790  152.9690  133.9300 C   0  0  0  0  0  0  0  0  0  0  0  0
  144.5230  154.1670  133.6240 C   0  0  0  0  0  0  0  0  0  0  0  0
  145.8040  156.7510  133.0460 C   0  0  0  0  0  0  0  0  0  0  0  0
  146.4010  157.9730  132.7500 C   0  0  0  0  0  0  0  0  0  0  0  0
  147.6580  158.3650  132.4450 N   0  0  0  0  0  0  0  0  0  0  0  0
  148.7630  157.4860  132.3540 C   0  0  0  0  0  0  0  0  0  0  0  0
  149.7180  157.6060  131.5500 O   0  0  0  0  0  0  0  0  0  0  0  0
  148.8460  156.3820  133.2050 O   0  0  0  0  0  0  0  0  0  0  0  0
  148.5840  155.0660  132.7420 C   0  0  0  0  0  0  0  0  0  0  0  0
  149.7670  154.5690  132.2320 F   0  0  0  0  0  0  0  0  0  0  0  0
  148.2580  154.3160  133.8470 F   0  0  0  0  0  0  0  0  0  0  0  0
  147.5440  155.0230  131.8460 F   0  0  0  0  0  0  0  0  0  0  0  0
  150.4110  159.6260  132.7400 H   0  0  0  0  0  0  0  0  0  0  0  0
  150.6930  160.2020  131.0210 H   0  0  0  0  0  0  0  0  0  0  0  0
  146.0061  161.1814  132.3625 H   0  0  0  0  0  0  0  0  0  0  0  0
  143.5830  159.8835  133.0313 H   0  0  0  0  0  0  0  0  0  0  0  0
  142.5783  157.6662  133.5481 H   0  0  0  0  0  0  0  0  0  0  0  0
  141.8864  156.2901  133.9813 H   0  0  0  0  0  0  0  0  0  0  0  0
  140.7661  154.1445  134.5226 H   0  0  0  0  0  0  0  0  0  0  0  0
  141.4287  148.6695  134.0306 H   0  0  0  0  0  0  0  0  0  0  0  0
  140.4288  149.7400  135.1254 H   0  0  0  0  0  0  0  0  0  0  0  0
  139.3134  148.1785  133.2999 H   0  0  0  0  0  0  0  0  0  0  0  0
  138.6747  149.8119  133.7056 H   0  0  0  0  0  0  0  0  0  0  0  0
  139.3950  150.7377  131.8240 H   0  0  0  0  0  0  0  0  0  0  0  0
  140.5101  147.9092  130.0086 H   0  0  0  0  0  0  0  0  0  0  0  0
  139.8213  147.1075  131.4283 H   0  0  0  0  0  0  0  0  0  0  0  0
  138.8765  145.9456  129.4692 H   0  0  0  0  0  0  0  0  0  0  0  0
  137.5598  146.9466  130.0522 H   0  0  0  0  0  0  0  0  0  0  0  0
  138.7110  148.8500  125.9760 H   0  0  0  0  0  0  0  0  0  0  0  0
  139.5163  149.5434  127.9606 H   0  0  0  0  0  0  0  0  0  0  0  0
  137.6649  149.4580  127.9836 H   0  0  0  0  0  0  0  0  0  0  0  0
  139.2392  150.6382  129.7948 H   0  0  0  0  0  0  0  0  0  0  0  0
  137.5006  149.9927  129.9663 H   0  0  0  0  0  0  0  0  0  0  0  0
  141.5941  148.6436  131.8127 H   0  0  0  0  0  0  0  0  0  0  0  0
  141.3172  149.7024  130.4179 H   0  0  0  0  0  0  0  0  0  0  0  0
  142.9616  150.6436  132.1642 H   0  0  0  0  0  0  0  0  0  0  0  0
  141.5663  151.7197  131.8230 H   0  0  0  0  0  0  0  0  0  0  0  0
  144.4500  152.0289  133.9140 H   0  0  0  0  0  0  0  0  0  0  0  0
  145.5930  154.1658  133.3687 H   0  0  0  0  0  0  0  0  0  0  0  0
  146.4275  155.8448  133.0551 H   0  0  0  0  0  0  0  0  0  0  0  0
  1  2  1  0
  2  3  2  0
  2  4  1  0
  4  5  2  0
  5  6  1  0
  6  7  2  0
  7  8  1  0
  8  9  2  0
  9 10  1  0
 10 11  2  0
 11 12  1  0
 12 13  2  0
 13 14  1  0
 14 15  2  0
 14 16  1  0
 16 17  1  0
 17 18  1  0
 18 19  1  0
 19 20  1  0
 20 21  1  0
 21 22  1  0
 22 23  1  0
 23 24  1  0
 24 25  2  0
 24 26  1  0
 23 27  1  0
 27 28  1  0
 19 29  1  0
 29 30  1  0
 13 31  1  0
 31 32  2  0
  9 33  1  0
 33 34  2  0
 34 35  1  0
 35 36  1  0
 36 37  2  0
 36 38  1  0
 38 39  1  0
 39 40  1  0
 39 41  1  0
 39 42  1  0
 35  4  1  0
 34  6  1  0
 32 10  1  0
 30 16  1  0
 28 20  1  0
  1 43  1  0
  1 44  1  0
  5 45  1  0
  7 46  1  0
  8 47  1  0
 11 48  1  0
 12 49  1  0
 17 50  1  0
 17 51  1  0
 18 52  1  0
 18 53  1  0
 19 54  1  0
 21 55  1  0
 21 56  1  0
 22 57  1  0
 22 58  1  0
 26 59  1  0
 27 60  1  0
 27 61  1  0
 28 62  1  0
 28 63  1  0
 29 64  1  0
 29 65  1  0
 30 66  1  0
 30 67  1  0
 31 68  1  0
 32 69  1  0
 33 70  1  0
M  END
>  <smiles>  (64) 
NC(=O)c1cc2ccc(-c3ccc(C(=O)N4CCC(N5CCN(C(=O)O)CC5)CC4)cc3)cc2n1C(=O)OC(F)(F)F

>  <score_type>  (64) 
oracle

>  <origin>  (64) 
adg

>  <m_score__min__energy>  (64) 
-8.6600000000000001

>  <m_primary>  (64) 
energy

$$$$
66:0
     RDKit          3D

 43 44  0  0  1  0  0  0  0  0999 V2000
  145.4660  162.6190  134.2140 N   0  0  0  0  0  0  0  0  0  0  0  0
  144.9910  161.3320  133.9220 C   0  0  0  0  0  0  0  0  0  0  0  0
  143.7110  161.2150  133.9350 O   0  0  0  0  0  0  0  0  0  0  0  0
  145.7450  160.1500  133.6150 C   0  0  0  0  0  0  0  0  0  0  0  0
  147.1190  160.1950  133.3530 C   0  0  0  0  0  0  0  0  0  0  0  0
  147.5710  158.9320  133.1020 C   0  0  0  0  0  0  0  0  0  0  0  0
  148.8200  158.4640  132.7980 C   0  0  0  0  0  0  0  0  0  0  0  0
  149.0120  157.1190  132.5880 C   0  0  0  0  0  0  0  0  0  0  0  0
  147.9700  156.2430  132.6780 C   0  0  0  0  0  0  0  0  0  0  0  0
  148.1160  154.8540  132.4530 N   0  0  0  0  0  0  0  0  0  0  0  0
  148.2780  153.8580  133.4790 C   0  0  0  0  0  0  0  0  0  0  0  0
  149.1060  152.7160  132.9920 C   0  0  0  0  0  0  0  0  0  0  0  0
  149.6630  153.0300  131.7390 O   0  0  0  0  0  0  0  0  0  0  0  0
  146.7140  156.7570  132.9900 C   0  0  0  0  0  0  0  0  0  0  0  0
  146.4910  158.1020  133.2070 C   0  0  0  0  0  0  0  0  0  0  0  0
  145.3940  158.8570  133.5180 N   0  0  0  0  0  0  0  0  0  0  0  0
  144.1290  158.2930  133.7030 C   0  0  0  0  0  0  0  0  0  0  0  0
  143.1590  158.7150  132.9890 O   0  0  0  0  0  0  0  0  0  0  0  0
  143.7750  157.2950  134.5970 O   0  0  0  0  0  0  0  0  0  0  0  0
  142.4070  157.0870  134.9270 C   0  0  0  0  0  0  0  0  0  0  0  0
  141.7260  158.3360  135.4100 C   0  0  1  0  0  0  0  0  0  0  0  0
  142.6070  159.3710  135.6930 O   0  0  0  0  0  0  0  0  0  0  0  0
  140.6280  158.8140  134.5230 C   0  0  0  0  0  0  0  0  0  0  0  0
  140.9500  160.0070  133.8870 O   0  0  0  0  0  0  0  0  0  0  0  0
  145.6240  162.8610  135.2140 H   0  0  0  0  0  0  0  0  0  0  0  0
  145.6330  163.2750  133.4120 H   0  0  0  0  0  0  0  0  0  0  0  0
  147.7372  161.1049  133.3499 H   0  0  0  0  0  0  0  0  0  0  0  0
  149.6674  159.1612  132.7219 H   0  0  0  0  0  0  0  0  0  0  0  0
  150.0174  156.7448  132.3446 H   0  0  0  0  0  0  0  0  0  0  0  0
  148.1090  154.4900  131.4580 H   0  0  0  0  0  0  0  0  0  0  0  0
  148.7724  154.3152  134.3488 H   0  0  0  0  0  0  0  0  0  0  0  0
  147.2842  153.4764  133.7560 H   0  0  0  0  0  0  0  0  0  0  0  0
  149.9143  152.5183  133.7115 H   0  0  0  0  0  0  0  0  0  0  0  0
  148.4706  151.8236  132.8930 H   0  0  0  0  0  0  0  0  0  0  0  0
  150.6380  153.1890  131.8020 H   0  0  0  0  0  0  0  0  0  0  0  0
  145.8644  156.0626  133.0668 H   0  0  0  0  0  0  0  0  0  0  0  0
  141.8811  156.7243  134.0315 H   0  0  0  0  0  0  0  0  0  0  0  0
  142.3727  156.3542  135.7466 H   0  0  0  0  0  0  0  0  0  0  0  0
  141.2599  158.0242  136.3563 H   0  0  0  0  0  0  0  0  0  0  0  0
  142.9270  159.8140  134.8740 H   0  0  0  0  0  0  0  0  0  0  0  0
  140.4301  158.0474  133.7593 H   0  0  0  0  0  0  0  0  0  0  0  0
  139.7413  158.9930  135.1489 H   0  0  0  0  0  0  0  0  0  0  0  0
  141.9230  160.0080  133.7480 H   0  0  0  0  0  0  0  0  0  0  0  0
  1  2  1  0
  2  3  2  0
  2  4  1  0
  4  5  2  0
  5  6  1  0
  6  7  2  0
  7  8  1  0
  8  9  2  0
  9 10  1  0
 10 11  1  0
 11 12  1  0
 12 13  1  0
  9 14  1  0
 14 15  2  0
 15 16  1  0
 16 17  1  0
 17 18  2  0
 17 19  1  0
 19 20  1  0
 20 21  1  0
 21 22  1  0
 21 23  1  0
 23 24  1  0
 16  4  1  0
 15  6  1  0
  1 25  1  0
  1 26  1  0
  5 27  1  0
  7 28  1  0
  8 29  1  0
 10 30  1  0
 11 31  1  0
 11 32  1  0
 12 33  1  0
 12 34  1  0
 13 35  1  0
 14 36  1  0
 20 37  1  0
 20 38  1  0
 21 39  1  1
 22 40  1  0
 23 41  1  0
 23 42  1  0
 24 43  1  0
M  END
>  <smiles>  (65) 
NC(=O)c1cc2ccc(NCCO)cc2n1C(=O)OCC(O)CO

>  <score_type>  (65) 
oracle

>  <origin>  (65) 
adg

>  <m_score__min__energy>  (65) 
-6.6100000000000003

>  <m_primary>  (65) 
energy

$$$$
67:0
     RDKit          3D

 39 40  0  0  0  0  0  0  0  0999 V2000
  149.3390  153.7030  132.5530 C   0  0  0  0  0  0  0  0  0  0  0  0
  148.8830  154.8380  132.6300 C   0  0  0  0  0  0  0  0  0  0  0  0
  148.3580  156.1910  132.7100 C   0  0  0  0  0  0  0  0  0  0  0  0
  149.1940  157.2520  132.4620 C   0  0  0  0  0  0  0  0  0  0  0  0
  148.6600  158.5140  132.5460 C   0  0  0  0  0  0  0  0  0  0  0  0
  147.3340  158.6870  132.8690 C   0  0  0  0  0  0  0  0  0  0  0  0
  146.5980  159.8240  133.0070 C   0  0  0  0  0  0  0  0  0  0  0  0
  145.2640  159.4890  133.3500 C   0  0  0  0  0  0  0  0  0  0  0  0
  144.2920  160.5240  133.5490 C   0  0  0  0  0  0  0  0  0  0  0  0
  144.7300  161.8590  133.9120 N   0  0  0  0  0  0  0  0  0  0  0  0
  143.0440  160.4470  133.4490 O   0  0  0  0  0  0  0  0  0  0  0  0
  145.2190  158.1300  133.4130 N   0  0  0  0  0  0  0  0  0  0  0  0
  144.0510  157.4220  133.7240 C   0  0  0  0  0  0  0  0  0  0  0  0
  144.1990  156.3780  134.4520 O   0  0  0  0  0  0  0  0  0  0  0  0
  142.7230  157.6660  133.3680 N   0  0  0  0  0  0  0  0  0  0  0  0
  141.6460  156.7950  133.8080 C   0  0  0  0  0  0  0  0  0  0  0  0
  141.8970  155.7830  134.5330 O   0  0  0  0  0  0  0  0  0  0  0  0
  140.3120  157.0940  133.4160 N   0  0  0  0  0  0  0  0  0  0  0  0
  139.4770  156.1070  132.7320 C   0  0  0  0  0  0  0  0  0  0  0  0
  139.7760  158.4110  133.7070 C   0  0  0  0  0  0  0  0  0  0  0  0
  139.8280  159.2760  132.4840 C   0  0  0  0  0  0  0  0  0  0  0  0
  138.8800  160.0690  132.2500 O   0  0  0  0  0  0  0  0  0  0  0  0
  140.9140  159.1850  131.6400 O   0  0  0  0  0  0  0  0  0  0  0  0
  146.4640  157.6440  133.1240 C   0  0  0  0  0  0  0  0  0  0  0  0
  147.0190  156.3870  133.0350 C   0  0  0  0  0  0  0  0  0  0  0  0
  149.7483  152.6843  132.4839 H   0  0  0  0  0  0  0  0  0  0  0  0
  150.2523  157.0964  132.2055 H   0  0  0  0  0  0  0  0  0  0  0  0
  149.2955  159.3911  132.3541 H   0  0  0  0  0  0  0  0  0  0  0  0
  146.9802  160.8467  132.8728 H   0  0  0  0  0  0  0  0  0  0  0  0
  145.4570  162.3500  133.3470 H   0  0  0  0  0  0  0  0  0  0  0  0
  144.2870  162.3020  134.7600 H   0  0  0  0  0  0  0  0  0  0  0  0
  142.4460  158.4450  132.7970 H   0  0  0  0  0  0  0  0  0  0  0  0
  138.9544  155.4893  133.4772 H   0  0  0  0  0  0  0  0  0  0  0  0
  138.7386  156.6248  132.1022 H   0  0  0  0  0  0  0  0  0  0  0  0
  140.1100  155.4646  132.1022 H   0  0  0  0  0  0  0  0  0  0  0  0
  138.7315  158.3127  134.0377 H   0  0  0  0  0  0  0  0  0  0  0  0
  140.3803  158.8759  134.4999 H   0  0  0  0  0  0  0  0  0  0  0  0
  141.7790  159.7020  131.8600 H   0  0  0  0  0  0  0  0  0  0  0  0
  146.3838  155.5097  133.2269 H   0  0  0  0  0  0  0  0  0  0  0  0
  1  2  3  0
  2  3  1  0
  3  4  2  0
  4  5  1  0
  5  6  2  0
  6  7  1  0
  7  8  2  0
  8  9  1  0
  9 10  1  0
  9 11  2  0
  8 12  1  0
 12 13  1  0
 13 14  2  0
 13 15  1  0
 15 16  1  0
 16 17  2  0
 16 18  1  0
 18 19  1  0
 18 20  1  0
 20 21  1  0
 21 22  2  0
 21 23  1  0
 12 24  1  0
 24 25  2  0
 25  3  1  0
 24  6  1  0
  1 26  1  0
  4 27  1  0
  5 28  1  0
  7 29  1  0
 10 30  1  0
 10 31  1  0
 15 32  1  0
 19 33  1  0
 19 34  1  0
 19 35  1  0
 20 36  1  0
 20 37  1  0
 23 38  1  0
 25 39  1  0
M  END
>  <smiles>  (66) 
C#Cc1ccc2cc(C(N)=O)n(C(=O)NC(=O)N(C)CC(=O)O)c2c1

>  <score_type>  (66) 
oracle

>  <origin>  (66) 
adg

>  <m_score__min__energy>  (66) 
-7.5899999999999999

>  <m_primary>  (66) 
energy

$$$$
68:0
     RDKit          3D

 40 41  0  0  0  0  0  0  0  0999 V2000
  144.7110  155.7850  133.1080 N   0  0  0  0  0  0  0  0  0  0  0  0
  144.9600  154.4560  133.6530 C   0  0  0  0  0  0  0  0  0  0  0  0
  146.0470  154.3710  134.2570 O   0  0  0  0  0  0  0  0  0  0  0  0
  143.9660  153.4400  133.4370 C   0  0  0  0  0  0  0  0  0  0  0  0
  144.3550  152.1990  132.8770 C   0  0  0  0  0  0  0  0  0  0  0  0
  143.2640  151.3970  132.7250 C   0  0  0  0  0  0  0  0  0  0  0  0
  143.1420  150.1150  132.2300 C   0  0  0  0  0  0  0  0  0  0  0  0
  141.9100  149.5040  132.1800 C   0  0  0  0  0  0  0  0  0  0  0  0
  140.8310  150.2070  132.6330 C   0  0  0  0  0  0  0  0  0  0  0  0
  139.4920  149.5610  132.5850 C   0  0  0  0  0  0  0  0  0  0  0  0
  138.8150  149.9510  131.4440 F   0  0  0  0  0  0  0  0  0  0  0  0
  140.9730  151.5070  133.1320 C   0  0  0  0  0  0  0  0  0  0  0  0
  142.1930  152.1340  133.1900 C   0  0  0  0  0  0  0  0  0  0  0  0
  142.6450  153.3630  133.6170 N   0  0  0  0  0  0  0  0  0  0  0  0
  141.7460  154.3210  134.1140 C   0  0  0  0  0  0  0  0  0  0  0  0
  141.6570  154.3760  135.3840 O   0  0  0  0  0  0  0  0  0  0  0  0
  140.9240  155.2470  133.3870 C   0  0  0  0  0  0  0  0  0  0  0  0
  140.9490  156.5490  133.5610 C   0  0  0  0  0  0  0  0  0  0  0  0
  141.7700  157.3140  134.4820 C   0  0  0  0  0  0  0  0  0  0  0  0
  142.9740  158.2710  133.4590 P   0  0  0  0  0  0  0  0  0  0  0  0
  144.2620  158.4940  134.2030 O   0  0  0  0  0  0  0  0  0  0  0  0
  142.3020  159.7900  133.0780 O   0  0  0  0  0  0  0  0  0  0  0  0
  143.2900  157.4770  132.0140 O   0  0  0  0  0  0  0  0  0  0  0  0
  140.0220  157.3390  132.7040 C   0  0  0  0  0  0  0  0  0  0  0  0
  138.7730  157.1970  132.7920 O   0  0  0  0  0  0  0  0  0  0  0  0
  140.4800  158.2570  131.7800 O   0  0  0  0  0  0  0  0  0  0  0  0
  145.0450  156.0480  132.1650 H   0  0  0  0  0  0  0  0  0  0  0  0
  144.1810  156.4100  133.7510 H   0  0  0  0  0  0  0  0  0  0  0  0
  145.3846  151.9234  132.6051 H   0  0  0  0  0  0  0  0  0  0  0  0
  144.0338  149.5787  131.8736 H   0  0  0  0  0  0  0  0  0  0  0  0
  141.7983  148.4824  131.7878 H   0  0  0  0  0  0  0  0  0  0  0  0
  139.6158  148.4680  132.5785 H   0  0  0  0  0  0  0  0  0  0  0  0
  138.9132  149.8678  133.4687 H   0  0  0  0  0  0  0  0  0  0  0  0
  140.0805  152.0422  133.4883 H   0  0  0  0  0  0  0  0  0  0  0  0
  140.2295  154.8406  132.6370 H   0  0  0  0  0  0  0  0  0  0  0  0
  141.1416  158.0008  135.0680 H   0  0  0  0  0  0  0  0  0  0  0  0
  142.2922  156.6513  135.1878 H   0  0  0  0  0  0  0  0  0  0  0  0
  141.9600  159.7850  132.1700 H   0  0  0  0  0  0  0  0  0  0  0  0
  142.4660  157.2820  131.5060 H   0  0  0  0  0  0  0  0  0  0  0  0
  141.4780  158.3680  131.6780 H   0  0  0  0  0  0  0  0  0  0  0  0
  1  2  1  0
  2  3  2  0
  2  4  1  0
  4  5  2  0
  5  6  1  0
  6  7  2  0
  7  8  1  0
  8  9  2  0
  9 10  1  0
 10 11  1  0
  9 12  1  0
 12 13  2  0
 13 14  1  0
 14 15  1  0
 15 16  2  0
 15 17  1  0
 17 18  2  0
 18 19  1  0
 19 20  1  0
 20 21  2  0
 20 22  1  0
 20 23  1  0
 18 24  1  0
 24 25  2  0
 24 26  1  0
 14  4  1  0
 13  6  1  0
  1 27  1  0
  1 28  1  0
  5 29  1  0
  7 30  1  0
  8 31  1  0
 10 32  1  0
 10 33  1  0
 12 34  1  0
 17 35  1  0
 19 36  1  0
 19 37  1  0
 22 38  1  0
 23 39  1  0
 26 40  1  0
M  END
>  <smiles>  (67) 
NC(=O)c1cc2ccc(CF)cc2n1C(=O)/C=C(\CP(=O)(O)O)C(=O)O

>  <score_type>  (67) 
oracle

>  <origin>  (67) 
adg

>  <m_score__min__energy>  (67) 
-7.6799999999999997

>  <m_primary>  (67) 
energy

$$$$
69:0
     RDKit          3D

 51 52  0  0  0  0  0  0  0  0999 V2000
  139.8670  160.1190  132.5360 C   0  0  0  0  0  0  0  0  0  0  0  0
  139.7820  158.7400  132.0410 N   0  0  0  0  0  0  0  0  0  0  0  0
  138.5830  158.6160  131.2280 C   0  0  0  0  0  0  0  0  0  0  0  0
  139.6480  157.9140  133.2530 C   0  0  0  0  0  0  0  0  0  0  0  0
  140.3580  158.6820  134.3600 C   0  0  0  0  0  0  0  0  0  0  0  0
  141.5970  157.9550  134.8150 C   0  0  0  0  0  0  0  0  0  0  0  0
  142.8530  158.5710  134.3160 C   0  0  0  0  0  0  0  0  0  0  0  0
  142.8760  159.9360  134.1400 C   0  0  0  0  0  0  0  0  0  0  0  0
  144.0380  160.5060  133.6730 C   0  0  0  0  0  0  0  0  0  0  0  0
  145.1340  159.7100  133.3970 C   0  0  0  0  0  0  0  0  0  0  0  0
  146.3610  160.0690  132.9340 C   0  0  0  0  0  0  0  0  0  0  0  0
  147.1150  158.8800  132.8250 C   0  0  0  0  0  0  0  0  0  0  0  0
  148.5020  158.9740  132.4030 C   0  0  0  0  0  0  0  0  0  0  0  0
  149.3030  157.7680  132.3180 N   0  0  0  0  0  0  0  0  0  0  0  0
  149.1140  160.0180  132.0920 O   0  0  0  0  0  0  0  0  0  0  0  0
  146.3770  157.8310  133.2010 N   0  0  0  0  0  0  0  0  0  0  0  0
  146.5800  156.4500  133.1140 C   0  0  0  0  0  0  0  0  0  0  0  0
  145.8270  155.8360  132.2500 O   0  0  0  0  0  0  0  0  0  0  0  0
  147.4850  155.5870  133.8050 C   0  0  0  0  0  0  0  0  0  0  0  0
  147.5770  155.3740  135.0240 O   0  0  0  0  0  0  0  0  0  0  0  0
  148.4730  154.8190  132.9810 C   0  0  0  0  0  0  0  0  0  0  0  0
  149.5470  155.4000  132.6090 O   0  0  0  0  0  0  0  0  0  0  0  0
  148.2290  153.4690  132.6160 N   0  0  0  0  0  0  0  0  0  0  0  0
  147.0460  152.7450  132.9930 C   0  0  0  0  0  0  0  0  0  0  0  0
  149.2510  152.7970  131.8140 C   0  0  0  0  0  0  0  0  0  0  0  0
  145.1520  158.3510  133.5600 C   0  0  0  0  0  0  0  0  0  0  0  0
  143.9770  157.7840  134.0300 C   0  0  0  0  0  0  0  0  0  0  0  0
  139.8667  160.1144  133.6360 H   0  0  0  0  0  0  0  0  0  0  0  0
  140.7954  160.5828  132.1715 H   0  0  0  0  0  0  0  0  0  0  0  0
  139.0026  160.6934  132.1715 H   0  0  0  0  0  0  0  0  0  0  0  0
  137.7038  158.5251  131.8828 H   0  0  0  0  0  0  0  0  0  0  0  0
  138.4766  159.5079  130.5931 H   0  0  0  0  0  0  0  0  0  0  0  0
  138.6614  157.7212  130.5931 H   0  0  0  0  0  0  0  0  0  0  0  0
  138.5865  157.7730  133.5048 H   0  0  0  0  0  0  0  0  0  0  0  0
  140.0833  156.9138  133.1111 H   0  0  0  0  0  0  0  0  0  0  0  0
  140.6423  159.6754  133.9829 H   0  0  0  0  0  0  0  0  0  0  0  0
  139.6731  158.7752  135.2157 H   0  0  0  0  0  0  0  0  0  0  0  0
  141.6195  157.9569  135.9148 H   0  0  0  0  0  0  0  0  0  0  0  0
  141.5472  156.9356  134.4047 H   0  0  0  0  0  0  0  0  0  0  0  0
  141.9930  160.5519  134.3657 H   0  0  0  0  0  0  0  0  0  0  0  0
  144.0948  161.5937  133.5195 H   0  0  0  0  0  0  0  0  0  0  0  0
  146.7001  161.0870  132.6916 H   0  0  0  0  0  0  0  0  0  0  0  0
  149.9390  157.4880  133.0950 H   0  0  0  0  0  0  0  0  0  0  0  0
  149.1790  157.2330  131.4310 H   0  0  0  0  0  0  0  0  0  0  0  0
  146.9762  152.7023  134.0900 H   0  0  0  0  0  0  0  0  0  0  0  0
  146.1594  153.2554  132.5888 H   0  0  0  0  0  0  0  0  0  0  0  0
  147.0970  151.7232  132.5888 H   0  0  0  0  0  0  0  0  0  0  0  0
  149.9824  152.3161  132.4802 H   0  0  0  0  0  0  0  0  0  0  0  0
  148.7762  152.0343  131.1793 H   0  0  0  0  0  0  0  0  0  0  0  0
  149.7631  153.5352  131.1793 H   0  0  0  0  0  0  0  0  0  0  0  0
  143.9261  156.6956  134.1813 H   0  0  0  0  0  0  0  0  0  0  0  0
  1  2  1  0
  2  3  1  0
  2  4  1  0
  4  5  1  0
  5  6  1  0
  6  7  1  0
  7  8  2  0
  8  9  1  0
  9 10  2  0
 10 11  1  0
 11 12  2  0
 12 13  1  0
 13 14  1  0
 13 15  2  0
 12 16  1  0
 16 17  1  0
 17 18  2  0
 17 19  1  0
 19 20  2  0
 19 21  1  0
 21 22  2  0
 21 23  1  0
 23 24  1  0
 23 25  1  0
 16 26  1  0
 26 27  2  0
 27  7  1  0
 26 10  1  0
  1 28  1  0
  1 29  1  0
  1 30  1  0
  3 31  1  0
  3 32  1  0
  3 33  1  0
  4 34  1  0
  4 35  1  0
  5 36  1  0
  5 37  1  0
  6 38  1  0
  6 39  1  0
  8 40  1  0
  9 41  1  0
 11 42  1  0
 14 43  1  0
 14 44  1  0
 24 45  1  0
 24 46  1  0
 24 47  1  0
 25 48  1  0
 25 49  1  0
 25 50  1  0
 27 51  1  0
M  END
>  <smiles>  (68) 
CN(C)CCCc1ccc2cc(C(N)=O)n(C(=O)C(=O)C(=O)N(C)C)c2c1

>  <score_type>  (68) 
oracle

>  <origin>  (68) 
adg

>  <m_score__min__energy>  (68) 
-8.3399999999999999

>  <m_primary>  (68) 
energy

$$$$
70:0
     RDKit          3D

 49 50  0  0  0  0  0  0  0  0999 V2000
  139.9690  157.5490  136.6680 C   0  0  0  0  0  0  0  0  0  0  0  0
  139.4130  158.2680  135.5870 O   0  0  0  0  0  0  0  0  0  0  0  0
  139.6430  157.8950  134.2540 C   0  0  0  0  0  0  0  0  0  0  0  0
  138.7360  157.2520  133.6580 O   0  0  0  0  0  0  0  0  0  0  0  0
  140.9220  158.2490  133.5580 C   0  0  1  0  0  0  0  0  0  0  0  0
  140.6220  159.1040  132.3430 C   0  0  0  0  0  0  0  0  0  0  0  0
  141.8450  158.9000  134.4570 N   0  0  0  0  0  0  0  0  0  0  0  0
  143.1450  159.3330  134.0850 C   0  0  0  0  0  0  0  0  0  0  0  0
  143.4690  160.6710  134.0930 C   0  0  0  0  0  0  0  0  0  0  0  0
  144.7370  161.0760  133.7330 C   0  0  0  0  0  0  0  0  0  0  0  0
  145.6630  160.1210  133.3670 C   0  0  0  0  0  0  0  0  0  0  0  0
  146.9730  160.2310  132.9680 C   0  0  0  0  0  0  0  0  0  0  0  0
  147.4880  158.9540  132.7030 C   0  0  0  0  0  0  0  0  0  0  0  0
  148.8510  158.7450  132.2620 C   0  0  0  0  0  0  0  0  0  0  0  0
  149.4050  157.4080  132.3170 N   0  0  0  0  0  0  0  0  0  0  0  0
  149.6310  159.6120  131.8250 O   0  0  0  0  0  0  0  0  0  0  0  0
  146.4930  158.0850  132.9410 N   0  0  0  0  0  0  0  0  0  0  0  0
  146.5480  156.6770  132.8080 C   0  0  0  0  0  0  0  0  0  0  0  0
  147.1810  156.0620  131.9140 O   0  0  0  0  0  0  0  0  0  0  0  0
  145.8660  155.8630  133.7120 O   0  0  0  0  0  0  0  0  0  0  0  0
  146.5880  155.0120  134.6120 C   0  0  0  0  0  0  0  0  0  0  0  0
  147.7140  155.8040  135.1890 C   0  0  0  0  0  0  0  0  0  0  0  0
  145.6950  154.4860  135.7130 C   0  0  0  0  0  0  0  0  0  0  0  0
  147.1600  153.8090  133.8620 C   0  0  0  0  0  0  0  0  0  0  0  0
  145.3870  158.7680  133.3410 C   0  0  0  0  0  0  0  0  0  0  0  0
  144.1020  158.4060  133.7100 C   0  0  0  0  0  0  0  0  0  0  0  0
  139.6278  157.9903  137.6161 H   0  0  0  0  0  0  0  0  0  0  0  0
  139.6456  156.4989  136.6149 H   0  0  0  0  0  0  0  0  0  0  0  0
  141.0666  157.5978  136.6149 H   0  0  0  0  0  0  0  0  0  0  0  0
  141.4113  157.3241  133.2188 H   0  0  0  0  0  0  0  0  0  0  0  0
  140.2742  160.0953  132.6691 H   0  0  0  0  0  0  0  0  0  0  0  0
  141.5345  159.2160  131.7391 H   0  0  0  0  0  0  0  0  0  0  0  0
  139.8396  158.6212  131.7391 H   0  0  0  0  0  0  0  0  0  0  0  0
  141.5160  159.0530  135.4460 H   0  0  0  0  0  0  0  0  0  0  0  0
  142.7161  161.4173  134.3867 H   0  0  0  0  0  0  0  0  0  0  0  0
  145.0057  162.1427  133.7376 H   0  0  0  0  0  0  0  0  0  0  0  0
  147.5310  161.1740  132.8714 H   0  0  0  0  0  0  0  0  0  0  0  0
  149.9510  157.1700  133.1730 H   0  0  0  0  0  0  0  0  0  0  0  0
  149.2520  156.7380  131.5290 H   0  0  0  0  0  0  0  0  0  0  0  0
  147.6627  155.7679  136.2872 H   0  0  0  0  0  0  0  0  0  0  0  0
  148.6713  155.3792  134.8525 H   0  0  0  0  0  0  0  0  0  0  0  0
  147.6378  156.8485  134.8525 H   0  0  0  0  0  0  0  0  0  0  0  0
  146.1291  154.7417  136.6908 H   0  0  0  0  0  0  0  0  0  0  0  0
  144.6973  154.9407  135.6246 H   0  0  0  0  0  0  0  0  0  0  0  0
  145.6090  153.3929  135.6246 H   0  0  0  0  0  0  0  0  0  0  0  0
  147.5157  153.0609  134.5858 H   0  0  0  0  0  0  0  0  0  0  0  0
  146.3768  153.3645  133.2303 H   0  0  0  0  0  0  0  0  0  0  0  0
  147.9991  154.1359  133.2303 H   0  0  0  0  0  0  0  0  0  0  0  0
  143.8314  157.3398  133.7048 H   0  0  0  0  0  0  0  0  0  0  0  0
  1  2  1  0
  2  3  1  0
  3  4  2  0
  3  5  1  0
  5  6  1  0
  5  7  1  0
  7  8  1  0
  8  9  2  0
  9 10  1  0
 10 11  2  0
 11 12  1  0
 12 13  2  0
 13 14  1  0
 14 15  1  0
 14 16  2  0
 13 17  1  0
 17 18  1  0
 18 19  2  0
 18 20  1  0
 20 21  1  0
 21 22  1  0
 21 23  1  0
 21 24  1  0
 17 25  1  0
 25 26  2  0
 26  8  1  0
 25 11  1  0
  1 27  1  0
  1 28  1  0
  1 29  1  0
  5 30  1  6
  6 31  1  0
  6 32  1  0
  6 33  1  0
  7 34  1  0
  9 35  1  0
 10 36  1  0
 12 37  1  0
 15 38  1  0
 15 39  1  0
 22 40  1  0
 22 41  1  0
 22 42  1  0
 23 43  1  0
 23 44  1  0
 23 45  1  0
 24 46  1  0
 24 47  1  0
 24 48  1  0
 26 49  1  0
M  END
>  <smiles>  (69) 
COC(=O)[C@@H](C)Nc1ccc2cc(C(N)=O)n(C(=O)OC(C)(C)C)c2c1

>  <score_type>  (69) 
oracle

>  <origin>  (69) 
adg

>  <m_score__min__energy>  (69) 
-7.5800000000000001

>  <m_primary>  (69) 
energy

$$$$
71:0
     RDKit          3D

 58 60  0  0  1  0  0  0  0  0999 V2000
  140.6250  159.2970  136.6890 C   0  0  0  0  0  0  0  0  0  0  0  0
  140.4530  158.2270  135.6810 C   0  0  0  0  0  0  0  0  0  0  0  0
  139.6380  158.4790  134.6050 C   0  0  0  0  0  0  0  0  0  0  0  0
  139.4860  157.4820  133.6770 C   0  0  0  0  0  0  0  0  0  0  0  0
  140.1250  156.2790  133.8230 C   0  0  0  0  0  0  0  0  0  0  0  0
  140.1070  155.1720  133.0260 C   0  0  0  0  0  0  0  0  0  0  0  0
  140.9330  154.1970  133.6180 C   0  0  0  0  0  0  0  0  0  0  0  0
  141.1150  152.9090  133.0020 C   0  0  0  0  0  0  0  0  0  0  0  0
  142.4780  152.4240  132.8170 N   0  0  0  0  0  0  0  0  0  0  0  0
  140.2650  152.1100  132.5850 O   0  0  0  0  0  0  0  0  0  0  0  0
  141.4470  154.7140  134.7640 N   0  0  0  0  0  0  0  0  0  0  0  0
  142.3220  154.1740  135.6990 C   0  0  0  0  0  0  0  0  0  0  0  0
  141.8110  153.4240  136.6190 O   0  0  0  0  0  0  0  0  0  0  0  0
  143.7760  154.3050  135.8420 C   0  0  0  0  0  0  0  0  0  0  0  0
  144.4250  153.2980  135.0150 O   0  0  0  0  0  0  0  0  0  0  0  0
  145.1170  153.6500  133.8690 C   0  0  0  0  0  0  0  0  0  0  0  0
  144.9160  153.1770  132.7360 O   0  0  0  0  0  0  0  0  0  0  0  0
  146.1830  154.6740  134.0080 C   0  0  2  0  0  0  0  0  0  0  0  0
  146.7040  154.9820  132.5990 C   0  0  0  0  0  0  0  0  0  0  0  0
  148.2210  154.8130  132.7160 C   0  0  0  0  0  0  0  0  0  0  0  0
  148.2480  153.6240  133.6870 C   0  0  0  0  0  0  0  0  0  0  0  0
  147.3460  154.1470  134.7010 N   0  0  0  0  0  0  0  0  0  0  0  0
  147.6140  154.1160  136.1000 C   0  0  0  0  0  0  0  0  0  0  0  0
  148.1160  155.1700  136.5940 O   0  0  0  0  0  0  0  0  0  0  0  0
  147.3410  153.0040  136.8680 O   0  0  0  0  0  0  0  0  0  0  0  0
  148.3420  152.2080  137.4810 C   0  0  0  0  0  0  0  0  0  0  0  0
  149.1930  153.0690  138.3800 C   0  0  0  0  0  0  0  0  0  0  0  0
  147.6630  151.1590  138.3070 C   0  0  0  0  0  0  0  0  0  0  0  0
  149.2340  151.5370  136.4660 C   0  0  0  0  0  0  0  0  0  0  0  0
  140.9420  155.9870  134.8750 C   0  0  0  0  0  0  0  0  0  0  0  0
  141.1000  157.0010  135.8220 C   0  0  0  0  0  0  0  0  0  0  0  0
  140.5555  158.8647  137.6981 H   0  0  0  0  0  0  0  0  0  0  0  0
  141.6104  159.7682  136.5590 H   0  0  0  0  0  0  0  0  0  0  0  0
  139.8369  160.0533  136.5590 H   0  0  0  0  0  0  0  0  0  0  0  0
  139.1258  159.4459  134.4920 H   0  0  0  0  0  0  0  0  0  0  0  0
  138.8412  157.6502  132.8018 H   0  0  0  0  0  0  0  0  0  0  0  0
  139.5461  155.0605  132.0864 H   0  0  0  0  0  0  0  0  0  0  0  0
  143.1300  152.3430  133.6200 H   0  0  0  0  0  0  0  0  0  0  0  0
  142.7350  152.1720  131.8360 H   0  0  0  0  0  0  0  0  0  0  0  0
  144.0899  155.3078  135.5168 H   0  0  0  0  0  0  0  0  0  0  0  0
  144.0608  154.1619  136.8948 H   0  0  0  0  0  0  0  0  0  0  0  0
  145.7572  155.5327  134.5478 H   0  0  0  0  0  0  0  0  0  0  0  0
  146.2879  154.2754  131.8658 H   0  0  0  0  0  0  0  0  0  0  0  0
  146.4167  155.9858  132.2530 H   0  0  0  0  0  0  0  0  0  0  0  0
  148.6858  154.5685  131.7495 H   0  0  0  0  0  0  0  0  0  0  0  0
  148.7757  155.7056  133.0410 H   0  0  0  0  0  0  0  0  0  0  0  0
  147.8617  152.7036  133.2248 H   0  0  0  0  0  0  0  0  0  0  0  0
  149.2441  153.3246  134.0450 H   0  0  0  0  0  0  0  0  0  0  0  0
  148.9653  152.8386  139.4312 H   0  0  0  0  0  0  0  0  0  0  0  0
  150.2560  152.8669  138.1823 H   0  0  0  0  0  0  0  0  0  0  0  0
  148.9785  154.1296  138.1823 H   0  0  0  0  0  0  0  0  0  0  0  0
  147.8075  151.3823  139.3744 H   0  0  0  0  0  0  0  0  0  0  0  0
  146.5874  151.1502  138.0766 H   0  0  0  0  0  0  0  0  0  0  0  0
  148.0954  150.1741  138.0766 H   0  0  0  0  0  0  0  0  0  0  0  0
  150.0084  150.9545  136.9866 H   0  0  0  0  0  0  0  0  0  0  0  0
  148.6321  150.8659  135.8357 H   0  0  0  0  0  0  0  0  0  0  0  0
  149.7119  152.3014  135.8357 H   0  0  0  0  0  0  0  0  0  0  0  0
  141.7468  156.8288  136.6949 H   0  0  0  0  0  0  0  0  0  0  0  0
  1  2  1  0
  2  3  2  0
  3  4  1  0
  4  5  2  0
  5  6  1  0
  6  7  2  0
  7  8  1  0
  8  9  1  0
  8 10  2  0
  7 11  1  0
 11 12  1  0
 12 13  2  0
 12 14  1  0
 14 15  1  0
 15 16  1  0
 16 17  2  0
 16 18  1  0
 18 19  1  0
 19 20  1  0
 20 21  1  0
 21 22  1  0
 22 23  1  0
 23 24  2  0
 23 25  1  0
 25 26  1  0
 26 27  1  0
 26 28  1  0
 26 29  1  0
 11 30  1  0
 30 31  2  0
 31  2  1  0
 30  5  1  0
 22 18  1  0
  1 32  1  0
  1 33  1  0
  1 34  1  0
  3 35  1  0
  4 36  1  0
  6 37  1  0
  9 38  1  0
  9 39  1  0
 14 40  1  0
 14 41  1  0
 18 42  1  1
 19 43  1  0
 19 44  1  0
 20 45  1  0
 20 46  1  0
 21 47  1  0
 21 48  1  0
 27 49  1  0
 27 50  1  0
 27 51  1  0
 28 52  1  0
 28 53  1  0
 28 54  1  0
 29 55  1  0
 29 56  1  0
 29 57  1  0
 31 58  1  0
M  END
>  <smiles>  (70) 
Cc1ccc2cc(C(N)=O)n(C(=O)COC(=O)C3CCCN3C(=O)OC(C)(C)C)c2c1

>  <score_type>  (70) 
oracle

>  <origin>  (70) 
adg

>  <m_score__min__energy>  (70) 
-9.2599999999999998

>  <m_primary>  (70) 
energy

$$$$
72:0
     RDKit          3D

 41 43  0  0  0  0  0  0  0  0999 V2000
  146.5370  162.3890  134.1940 N   0  0  0  0  0  0  0  0  0  0  0  0
  145.1950  161.9890  134.1120 C   0  0  0  0  0  0  0  0  0  0  0  0
  144.3640  162.9770  134.1130 O   0  0  0  0  0  0  0  0  0  0  0  0
  144.6110  160.6840  134.0190 C   0  0  0  0  0  0  0  0  0  0  0  0
  143.2480  160.5110  134.3910 C   0  0  0  0  0  0  0  0  0  0  0  0
  142.9170  159.2000  134.2240 C   0  0  0  0  0  0  0  0  0  0  0  0
  141.7220  158.5580  134.4510 C   0  0  0  0  0  0  0  0  0  0  0  0
  141.5990  157.2080  134.2150 C   0  0  0  0  0  0  0  0  0  0  0  0
  142.7060  156.5400  133.7500 C   0  0  0  0  0  0  0  0  0  0  0  0
  142.6450  155.0880  133.4740 C   0  0  0  0  0  0  0  0  0  0  0  0
  141.4390  154.4090  133.5780 C   0  0  0  0  0  0  0  0  0  0  0  0
  141.3680  153.0360  133.3150 C   0  0  0  0  0  0  0  0  0  0  0  0
  142.5050  152.3560  132.9500 C   0  0  0  0  0  0  0  0  0  0  0  0
  142.4230  150.6350  132.6150 Cl  0  0  0  0  0  0  0  0  0  0  0  0
  143.7030  153.0290  132.8470 C   0  0  0  0  0  0  0  0  0  0  0  0
  145.1200  152.1050  132.3750 Cl  0  0  0  0  0  0  0  0  0  0  0  0
  143.7880  154.3820  133.1030 C   0  0  0  0  0  0  0  0  0  0  0  0
  143.9150  157.2120  133.5240 C   0  0  0  0  0  0  0  0  0  0  0  0
  144.0460  158.5700  133.7590 C   0  0  0  0  0  0  0  0  0  0  0  0
  145.0710  159.4780  133.6390 N   0  0  0  0  0  0  0  0  0  0  0  0
  146.3420  159.0780  133.2010 C   0  0  0  0  0  0  0  0  0  0  0  0
  147.2580  159.9830  133.2370 O   0  0  0  0  0  0  0  0  0  0  0  0
  146.8160  157.7910  132.6980 C   0  0  0  0  0  0  0  0  0  0  0  0
  147.7320  157.0510  133.6230 C   0  0  0  0  0  0  0  0  0  0  0  0
  147.5220  155.5860  133.5910 C   0  0  0  0  0  0  0  0  0  0  0  0
  146.7590  155.0620  134.4740 O   0  0  0  0  0  0  0  0  0  0  0  0
  148.0880  154.7400  132.6790 O   0  0  0  0  0  0  0  0  0  0  0  0
  147.1310  162.2130  133.3310 H   0  0  0  0  0  0  0  0  0  0  0  0
  146.9700  162.8470  135.0240 H   0  0  0  0  0  0  0  0  0  0  0  0
  142.5752  161.3026  134.7525 H   0  0  0  0  0  0  0  0  0  0  0  0
  140.8583  159.1280  134.8240 H   0  0  0  0  0  0  0  0  0  0  0  0
  140.6489  156.6826  134.3922 H   0  0  0  0  0  0  0  0  0  0  0  0
  140.5300  154.9552  133.8700 H   0  0  0  0  0  0  0  0  0  0  0  0
  140.4085  152.5049  133.3999 H   0  0  0  0  0  0  0  0  0  0  0  0
  144.7537  154.9013  133.0147 H   0  0  0  0  0  0  0  0  0  0  0  0
  144.7813  156.6463  133.1506 H   0  0  0  0  0  0  0  0  0  0  0  0
  145.9390  157.1556  132.5050 H   0  0  0  0  0  0  0  0  0  0  0  0
  147.4024  158.0104  131.7935 H   0  0  0  0  0  0  0  0  0  0  0  0
  148.7713  157.2631  133.3318 H   0  0  0  0  0  0  0  0  0  0  0  0
  147.5156  157.3934  134.6457 H   0  0  0  0  0  0  0  0  0  0  0  0
  147.6360  154.4920  131.7920 H   0  0  0  0  0  0  0  0  0  0  0  0
  1  2  1  0
  2  3  2  0
  2  4  1  0
  4  5  2  0
  5  6  1  0
  6  7  2  0
  7  8  1  0
  8  9  2  0
  9 10  1  0
 10 11  2  0
 11 12  1  0
 12 13  2  0
 13 14  1  0
 13 15  1  0
 15 16  1  0
 15 17  2  0
  9 18  1  0
 18 19  2  0
 19 20  1  0
 20 21  1  0
 21 22  2  0
 21 23  1  0
 23 24  1  0
 24 25  1  0
 25 26  2  0
 25 27  1  0
 20  4  1  0
 19  6  1  0
 17 10  1  0
  1 28  1  0
  1 29  1  0
  5 30  1  0
  7 31  1  0
  8 32  1  0
 11 33  1  0
 12 34  1  0
 17 35  1  0
 18 36  1  0
 23 37  1  0
 23 38  1  0
 24 39  1  0
 24 40  1  0
 27 41  1  0
M  END
>  <smiles>  (71) 
NC(=O)c1cc2ccc(-c3ccc(Cl)c(Cl)c3)cc2n1C(=O)CCC(=O)O

>  <score_type>  (71) 
oracle

>  <origin>  (71) 
adg

>  <m_score__min__energy>  (71) 
-9.1899999999999995

>  <m_primary>  (71) 
energy

$$$$
73:0
     RDKit          3D

 36 38  0  0  0  0  0  0  0  0999 V2000
  147.9270  152.4190  138.1690 C   0  0  0  0  0  0  0  0  0  0  0  0
  146.6120  152.5500  137.7030 O   0  0  0  0  0  0  0  0  0  0  0  0
  146.1620  153.4660  136.7840 C   0  0  0  0  0  0  0  0  0  0  0  0
  144.7840  153.7040  136.7160 C   0  0  0  0  0  0  0  0  0  0  0  0
  144.2960  154.5920  135.8330 N   0  0  0  0  0  0  0  0  0  0  0  0
  145.1020  155.2800  134.9880 C   0  0  0  0  0  0  0  0  0  0  0  0
  146.4650  155.0720  135.0280 C   0  0  0  0  0  0  0  0  0  0  0  0
  147.2910  155.8410  134.0950 C   0  0  0  0  0  0  0  0  0  0  0  0
  148.3380  155.1730  133.4980 C   0  0  0  0  0  0  0  0  0  0  0  0
  149.1480  155.8500  132.6110 C   0  0  0  0  0  0  0  0  0  0  0  0
  148.8790  157.1860  132.3480 C   0  0  0  0  0  0  0  0  0  0  0  0
  149.5130  158.0820  131.5230 C   0  0  0  0  0  0  0  0  0  0  0  0
  148.8540  159.3170  131.6070 C   0  0  0  0  0  0  0  0  0  0  0  0
  149.2930  160.4670  130.8470 C   0  0  0  0  0  0  0  0  0  0  0  0
  148.4700  161.6560  130.8100 N   0  0  0  0  0  0  0  0  0  0  0  0
  150.3550  160.5530  130.1880 O   0  0  0  0  0  0  0  0  0  0  0  0
  147.8470  159.1590  132.4670 N   0  0  0  0  0  0  0  0  0  0  0  0
  146.9040  160.1290  132.8730 C   0  0  0  0  0  0  0  0  0  0  0  0
  147.2840  161.1310  133.5700 O   0  0  0  0  0  0  0  0  0  0  0  0
  145.5540  160.1120  132.5830 O   0  0  0  0  0  0  0  0  0  0  0  0
  147.8450  157.8760  132.9260 C   0  0  0  0  0  0  0  0  0  0  0  0
  147.0490  157.1690  133.8140 C   0  0  0  0  0  0  0  0  0  0  0  0
  146.9980  154.1680  135.9230 C   0  0  0  0  0  0  0  0  0  0  0  0
  147.9279  152.4189  139.2690 H   0  0  0  0  0  0  0  0  0  0  0  0
  148.3537  151.4739  137.8019 H   0  0  0  0  0  0  0  0  0  0  0  0
  148.5317  153.2614  137.8019 H   0  0  0  0  0  0  0  0  0  0  0  0
  144.0996  153.1633  137.3863 H   0  0  0  0  0  0  0  0  0  0  0  0
  144.6722  155.9992  134.2753 H   0  0  0  0  0  0  0  0  0  0  0  0
  148.5252  154.1133  133.7261 H   0  0  0  0  0  0  0  0  0  0  0  0
  149.9912  155.3410  132.1212 H   0  0  0  0  0  0  0  0  0  0  0  0
  150.3929  157.8665  130.8990 H   0  0  0  0  0  0  0  0  0  0  0  0
  147.8550  161.8850  131.6360 H   0  0  0  0  0  0  0  0  0  0  0  0
  148.4620  162.2910  129.9990 H   0  0  0  0  0  0  0  0  0  0  0  0
  145.1150  160.9750  132.2350 H   0  0  0  0  0  0  0  0  0  0  0  0
  146.2065  157.6783  134.3048 H   0  0  0  0  0  0  0  0  0  0  0  0
  148.0850  154.0024  135.9556 H   0  0  0  0  0  0  0  0  0  0  0  0
  1  2  1  0
  2  3  1  0
  3  4  2  0
  4  5  1  0
  5  6  2  0
  6  7  1  0
  7  8  1  0
  8  9  2  0
  9 10  1  0
 10 11  2  0
 11 12  1  0
 12 13  2  0
 13 14  1  0
 14 15  1  0
 14 16  2  0
 13 17  1  0
 17 18  1  0
 18 19  2  0
 18 20  1  0
 17 21  1  0
 21 22  2  0
  7 23  2  0
 23  3  1  0
 22  8  1  0
 21 11  1  0
  1 24  1  0
  1 25  1  0
  1 26  1  0
  4 27  1  0
  6 28  1  0
  9 29  1  0
 10 30  1  0
 12 31  1  0
 15 32  1  0
 15 33  1  0
 20 34  1  0
 22 35  1  0
 23 36  1  0
M  END
>  <smiles>  (72) 
COc1cncc(-c2ccc3cc(C(N)=O)n(C(=O)O)c3c2)c1

>  <score_type>  (72) 
oracle

>  <origin>  (72) 
adg

>  <m_score__min__energy>  (72) 
-7.54

>  <m_primary>  (72) 
energy

$$$$
75:0
     RDKit          3D

 41 43  0  0  0  0  0  0  0  0999 V2000
  149.3170  157.6140  132.3390 N   0  0  0  0  0  0  0  0  0  0  0  0
  148.7700  158.9300  132.6110 C   0  0  0  0  0  0  0  0  0  0  0  0
  149.6140  159.8510  132.5140 O   0  0  0  0  0  0  0  0  0  0  0  0
  147.3790  159.0690  132.9540 C   0  0  0  0  0  0  0  0  0  0  0  0
  146.8070  160.3290  133.2090 C   0  0  0  0  0  0  0  0  0  0  0  0
  145.4920  160.1760  133.5110 C   0  0  0  0  0  0  0  0  0  0  0  0
  144.5300  161.1040  133.8310 C   0  0  0  0  0  0  0  0  0  0  0  0
  143.2500  160.6800  134.1010 C   0  0  0  0  0  0  0  0  0  0  0  0
  142.9550  159.3370  134.0490 C   0  0  0  0  0  0  0  0  0  0  0  0
  141.6060  158.8350  134.3300 C   0  0  0  0  0  0  0  0  0  0  0  0
  140.7890  158.4090  133.3030 C   0  0  0  0  0  0  0  0  0  0  0  0
  139.5150  157.9400  133.5250 C   0  0  0  0  0  0  0  0  0  0  0  0
  139.0630  157.9030  134.8180 C   0  0  0  0  0  0  0  0  0  0  0  0
  139.8520  158.3160  135.8360 N   0  0  0  0  0  0  0  0  0  0  0  0
  141.0970  158.7740  135.6090 C   0  0  0  0  0  0  0  0  0  0  0  0
  143.9550  158.4220  133.7210 C   0  0  0  0  0  0  0  0  0  0  0  0
  145.2470  158.8150  133.4450 C   0  0  0  0  0  0  0  0  0  0  0  0
  146.3970  158.1610  133.1060 N   0  0  0  0  0  0  0  0  0  0  0  0
  146.5250  156.7260  132.9250 C   0  0  0  0  0  0  0  0  0  0  0  0
  146.9890  156.2490  131.8780 O   0  0  0  0  0  0  0  0  0  0  0  0
  146.0280  155.5810  134.1910 S   0  0  0  0  0  0  0  0  0  0  0  0
  146.5320  153.9130  133.8570 C   0  0  0  0  0  0  0  0  0  0  0  0
  147.9750  153.6530  134.1000 C   0  0  0  0  0  0  0  0  0  0  0  0
  148.8880  153.9190  132.9730 C   0  0  0  0  0  0  0  0  0  0  0  0
  149.4070  152.9100  132.4030 O   0  0  0  0  0  0  0  0  0  0  0  0
  149.2130  155.1700  132.4990 O   0  0  0  0  0  0  0  0  0  0  0  0
  149.0190  157.0880  131.4590 H   0  0  0  0  0  0  0  0  0  0  0  0
  149.9980  157.1670  133.0000 H   0  0  0  0  0  0  0  0  0  0  0  0
  147.3422  161.2892  133.1698 H   0  0  0  0  0  0  0  0  0  0  0  0
  144.7812  162.1742  133.8707 H   0  0  0  0  0  0  0  0  0  0  0  0
  142.4674  161.4094  134.3568 H   0  0  0  0  0  0  0  0  0  0  0  0
  141.1694  158.4456  132.2715 H   0  0  0  0  0  0  0  0  0  0  0  0
  138.8797  157.6055  132.6916 H   0  0  0  0  0  0  0  0  0  0  0  0
  138.0487  157.5339  135.0301 H   0  0  0  0  0  0  0  0  0  0  0  0
  141.7166  159.1041  136.4559 H   0  0  0  0  0  0  0  0  0  0  0  0
  143.7045  157.3516  133.6812 H   0  0  0  0  0  0  0  0  0  0  0  0
  145.9469  153.2401  134.5011 H   0  0  0  0  0  0  0  0  0  0  0  0
  146.3549  153.7375  132.7856 H   0  0  0  0  0  0  0  0  0  0  0  0
  148.2915  154.2844  134.9433 H   0  0  0  0  0  0  0  0  0  0  0  0
  148.0496  152.5717  134.2875 H   0  0  0  0  0  0  0  0  0  0  0  0
  148.6140  155.7250  131.8770 H   0  0  0  0  0  0  0  0  0  0  0  0
  1  2  1  0
  2  3  2  0
  2  4  1  0
  4  5  2  0
  5  6  1  0
  6  7  2  0
  7  8  1  0
  8  9  2  0
  9 10  1  0
 10 11  2  0
 11 12  1  0
 12 13  2  0
 13 14  1  0
 14 15  2  0
  9 16  1  0
 16 17  2  0
 17 18  1  0
 18 19  1  0
 19 20  2  0
 19 21  1  0
 21 22  1  0
 22 23  1  0
 23 24  1  0
 24 25  2  0
 24 26  1  0
 18  4  1  0
 17  6  1  0
 15 10  1  0
  1 27  1  0
  1 28  1  0
  5 29  1  0
  7 30  1  0
  8 31  1  0
 11 32  1  0
 12 33  1  0
 13 34  1  0
 15 35  1  0
 16 36  1  0
 22 37  1  0
 22 38  1  0
 23 39  1  0
 23 40  1  0
 26 41  1  0
M  END
>  <smiles>  (73) 
NC(=O)c1cc2ccc(-c3cccnc3)cc2n1C(=O)SCCC(=O)O

>  <score_type>  (73) 
oracle

>  <origin>  (73) 
adg

>  <m_score__min__energy>  (73) 
-8.3699999999999992

>  <m_primary>  (73) 
energy

$$$$
76:0
     RDKit          3D

 36 37  0  0  0  0  0  0  0  0999 V2000
  143.5270  155.8790  133.0290 C   0  0  0  0  0  0  0  0  0  0  0  0
  144.5640  154.7880  132.7950 N   0  0  0  0  0  0  0  0  0  0  0  0
  144.1030  153.7610  131.9330 C   0  0  0  0  0  0  0  0  0  0  0  0
  144.3880  152.3910  132.5470 C   0  0  0  0  0  0  0  0  0  0  0  0
  143.3990  151.6470  132.7780 O   0  0  0  0  0  0  0  0  0  0  0  0
  145.6990  152.0340  132.8160 O   0  0  0  0  0  0  0  0  0  0  0  0
  145.7780  155.1160  133.3770 C   0  0  0  0  0  0  0  0  0  0  0  0
  145.9670  154.3270  134.4460 O   0  0  0  0  0  0  0  0  0  0  0  0
  146.8160  155.9980  133.1900 N   0  0  0  0  0  0  0  0  0  0  0  0
  148.0660  155.6160  132.7780 C   0  0  0  0  0  0  0  0  0  0  0  0
  148.6650  154.3040  132.6250 C   0  0  0  0  0  0  0  0  0  0  0  0
  147.8750  153.1080  132.8700 N   0  0  0  0  0  0  0  0  0  0  0  0
  149.8470  154.0550  132.2910 O   0  0  0  0  0  0  0  0  0  0  0  0
  148.8290  156.7700  132.5540 C   0  0  0  0  0  0  0  0  0  0  0  0
  148.0680  157.8450  132.8210 C   0  0  0  0  0  0  0  0  0  0  0  0
  148.3540  159.1930  132.7240 C   0  0  0  0  0  0  0  0  0  0  0  0
  147.4000  160.1260  133.0100 C   0  0  0  0  0  0  0  0  0  0  0  0
  146.1640  159.6960  133.3930 C   0  0  0  0  0  0  0  0  0  0  0  0
  145.0630  160.6650  133.7230 C   0  0  0  0  0  0  0  0  0  0  0  0
  145.4880  161.6840  134.5350 F   0  0  0  0  0  0  0  0  0  0  0  0
  144.0100  159.9400  134.2470 F   0  0  0  0  0  0  0  0  0  0  0  0
  145.8930  158.3400  133.4880 C   0  0  0  0  0  0  0  0  0  0  0  0
  146.8270  157.3650  133.2130 C   0  0  0  0  0  0  0  0  0  0  0  0
  143.3871  156.0261  134.1101 H   0  0  0  0  0  0  0  0  0  0  0  0
  143.8735  156.8181  132.5729 H   0  0  0  0  0  0  0  0  0  0  0  0
  142.5715  155.5806  132.5729 H   0  0  0  0  0  0  0  0  0  0  0  0
  143.0193  153.8730  131.7810 H   0  0  0  0  0  0  0  0  0  0  0  0
  144.6268  153.8388  130.9688 H   0  0  0  0  0  0  0  0  0  0  0  0
  146.0800  152.2630  133.7450 H   0  0  0  0  0  0  0  0  0  0  0  0
  147.4180  152.9460  133.7940 H   0  0  0  0  0  0  0  0  0  0  0  0
  147.8090  152.4490  132.0610 H   0  0  0  0  0  0  0  0  0  0  0  0
  149.8756  156.7922  132.2162 H   0  0  0  0  0  0  0  0  0  0  0  0
  149.3585  159.5168  132.4138 H   0  0  0  0  0  0  0  0  0  0  0  0
  147.6230  161.2004  132.9333 H   0  0  0  0  0  0  0  0  0  0  0  0
  144.7236  161.1804  132.8124 H   0  0  0  0  0  0  0  0  0  0  0  0
  144.8848  158.0275  133.7975 H   0  0  0  0  0  0  0  0  0  0  0  0
  1  2  1  0
  2  3  1  0
  3  4  1  0
  4  5  2  0
  4  6  1  0
  2  7  1  0
  7  8  2  0
  7  9  1  0
  9 10  1  0
 10 11  1  0
 11 12  1  0
 11 13  2  0
 10 14  2  0
 14 15  1  0
 15 16  2  0
 16 17  1  0
 17 18  2  0
 18 19  1  0
 19 20  1  0
 19 21  1  0
 18 22  1  0
 22 23  2  0
 23  9  1  0
 23 15  1  0
  1 24  1  0
  1 25  1  0
  1 26  1  0
  3 27  1  0
  3 28  1  0
  6 29  1  0
 12 30  1  0
 12 31  1  0
 14 32  1  0
 16 33  1  0
 17 34  1  0
 19 35  1  0
 22 36  1  0
M  END
>  <smiles>  (74) 
CN(CC(=O)O)C(=O)n1c(C(N)=O)cc2ccc(C(F)F)cc21

>  <score_type>  (74) 
oracle

>  <origin>  (74) 
adg

>  <m_score__min__energy>  (74) 
-5.8799999999999999

>  <m_primary>  (74) 
energy

$$$$
77:0
     RDKit          3D

 40 41  0  0  0  0  0  0  0  0999 V2000
  142.1230  153.0660  131.9040 N   0  0  0  0  0  0  0  0  0  0  0  0
  141.5430  153.5870  133.1040 C   0  0  0  0  0  0  0  0  0  0  0  0
  141.0870  152.7440  133.9070 O   0  0  0  0  0  0  0  0  0  0  0  0
  141.5120  154.9820  133.3230 N   0  0  0  0  0  0  0  0  0  0  0  0
  140.9530  155.6530  134.4530 C   0  0  0  0  0  0  0  0  0  0  0  0
  140.9380  157.1150  134.3770 C   0  0  0  0  0  0  0  0  0  0  0  0
  142.1210  157.8860  134.0570 C   0  0  0  0  0  0  0  0  0  0  0  0
  142.0000  159.2520  133.8860 C   0  0  0  0  0  0  0  0  0  0  0  0
  143.1390  159.9760  133.6350 C   0  0  0  0  0  0  0  0  0  0  0  0
  144.3610  159.3490  133.5610 C   0  0  0  0  0  0  0  0  0  0  0  0
  145.5950  159.8700  133.3250 C   0  0  0  0  0  0  0  0  0  0  0  0
  146.5320  158.8060  133.3490 C   0  0  0  0  0  0  0  0  0  0  0  0
  147.9210  159.1110  133.1250 C   0  0  0  0  0  0  0  0  0  0  0  0
  149.0730  158.4170  133.5010 N   0  0  0  0  0  0  0  0  0  0  0  0
  148.1550  160.2000  132.4810 O   0  0  0  0  0  0  0  0  0  0  0  0
  145.8650  157.6640  133.5920 N   0  0  0  0  0  0  0  0  0  0  0  0
  146.2980  156.3200  133.6200 C   0  0  0  0  0  0  0  0  0  0  0  0
  146.6920  155.9070  134.7910 O   0  0  0  0  0  0  0  0  0  0  0  0
  146.3770  155.3180  132.5890 C   0  0  0  0  0  0  0  0  0  0  0  0
  147.0830  155.7640  131.5060 F   0  0  0  0  0  0  0  0  0  0  0  0
  147.2690  154.2990  133.1260 F   0  0  0  0  0  0  0  0  0  0  0  0
  145.1670  154.5340  132.2920 C   0  0  0  0  0  0  0  0  0  0  0  0
  144.0130  155.0130  132.1690 O   0  0  0  0  0  0  0  0  0  0  0  0
  145.3120  153.1590  132.1390 O   0  0  0  0  0  0  0  0  0  0  0  0
  144.5350  157.9980  133.7240 C   0  0  0  0  0  0  0  0  0  0  0  0
  143.3820  157.2740  133.9760 C   0  0  0  0  0  0  0  0  0  0  0  0
  143.1710  153.0180  131.8520 H   0  0  0  0  0  0  0  0  0  0  0  0
  141.5350  152.7390  131.0960 H   0  0  0  0  0  0  0  0  0  0  0  0
  141.9550  155.5670  132.5550 H   0  0  0  0  0  0  0  0  0  0  0  0
  139.9147  155.3096  134.5710 H   0  0  0  0  0  0  0  0  0  0  0  0
  141.6037  155.4026  135.3038 H   0  0  0  0  0  0  0  0  0  0  0  0
  140.1880  157.3744  133.6152 H   0  0  0  0  0  0  0  0  0  0  0  0
  140.7609  157.3953  135.4258 H   0  0  0  0  0  0  0  0  0  0  0  0
  141.0188  159.7452  133.9492 H   0  0  0  0  0  0  0  0  0  0  0  0
  143.0740  161.0647  133.4921 H   0  0  0  0  0  0  0  0  0  0  0  0
  145.8257  160.9307  133.1468 H   0  0  0  0  0  0  0  0  0  0  0  0
  149.8130  158.0430  132.8940 H   0  0  0  0  0  0  0  0  0  0  0  0
  149.2120  158.2490  134.5430 H   0  0  0  0  0  0  0  0  0  0  0  0
  145.9590  152.7520  131.4750 H   0  0  0  0  0  0  0  0  0  0  0  0
  143.4563  156.1856  134.1171 H   0  0  0  0  0  0  0  0  0  0  0  0
  1  2  1  0
  2  3  2  0
  2  4  1  0
  4  5  1  0
  5  6  1  0
  6  7  1  0
  7  8  2  0
  8  9  1  0
  9 10  2  0
 10 11  1  0
 11 12  2  0
 12 13  1  0
 13 14  1  0
 13 15  2  0
 12 16  1  0
 16 17  1  0
 17 18  2  0
 17 19  1  0
 19 20  1  0
 19 21  1  0
 19 22  1  0
 22 23  2  0
 22 24  1  0
 16 25  1  0
 25 26  2  0
 26  7  1  0
 25 10  1  0
  1 27  1  0
  1 28  1  0
  4 29  1  0
  5 30  1  0
  5 31  1  0
  6 32  1  0
  6 33  1  0
  8 34  1  0
  9 35  1  0
 11 36  1  0
 14 37  1  0
 14 38  1  0
 24 39  1  0
 26 40  1  0
M  END
>  <smiles>  (75) 
NC(=O)NCCc1ccc2cc(C(N)=O)n(C(=O)C(F)(F)C(=O)O)c2c1

>  <score_type>  (75) 
oracle

>  <origin>  (75) 
adg

>  <m_score__min__energy>  (75) 
-7.6100000000000003

>  <m_primary>  (75) 
energy

$$$$
78:0
     RDKit          3D

 42 44  0  0  1  0  0  0  0  0999 V2000
  138.8780  158.5830  133.0340 C   0  0  0  0  0  0  0  0  0  0  0  0
  139.5200  157.5480  133.9510 C   0  0  1  0  0  0  0  0  0  0  0  0
  141.0110  157.6100  133.7940 C   0  0  0  0  0  0  0  0  0  0  0  0
  141.6070  158.7340  134.4900 N   0  0  0  0  0  0  0  0  0  0  0  0
  142.9090  159.1600  134.1110 C   0  0  0  0  0  0  0  0  0  0  0  0
  143.1960  160.5050  134.0820 C   0  0  0  0  0  0  0  0  0  0  0  0
  144.4610  160.9130  133.7170 C   0  0  0  0  0  0  0  0  0  0  0  0
  145.4170  159.9770  133.3870 C   0  0  0  0  0  0  0  0  0  0  0  0
  146.7310  160.1060  132.9950 C   0  0  0  0  0  0  0  0  0  0  0  0
  147.2810  158.8350  132.7730 C   0  0  0  0  0  0  0  0  0  0  0  0
  148.6450  158.6620  132.3530 C   0  0  0  0  0  0  0  0  0  0  0  0
  149.4110  157.4890  132.3220 N   0  0  0  0  0  0  0  0  0  0  0  0
  149.2560  159.7180  131.9480 O   0  0  0  0  0  0  0  0  0  0  0  0
  146.3010  157.9530  133.0320 N   0  0  0  0  0  0  0  0  0  0  0  0
  146.3550  156.5430  132.9550 C   0  0  0  0  0  0  0  0  0  0  0  0
  145.4650  155.8470  133.5350 O   0  0  0  0  0  0  0  0  0  0  0  0
  147.3150  155.8080  132.2870 O   0  0  0  0  0  0  0  0  0  0  0  0
  145.1710  158.6240  133.4040 C   0  0  0  0  0  0  0  0  0  0  0  0
  143.8970  158.2370  133.7720 C   0  0  0  0  0  0  0  0  0  0  0  0
  140.8300  159.3530  135.5350 C   0  0  0  0  0  0  0  0  0  0  0  0
  139.8720  158.3320  136.1210 C   0  0  2  0  0  0  0  0  0  0  0  0
  140.5840  157.3040  136.9870 C   0  0  0  0  0  0  0  0  0  0  0  0
  139.0410  157.7400  135.2120 O   0  0  0  0  0  0  0  0  0  0  0  0
  138.3948  159.3620  133.6420 H   0  0  0  0  0  0  0  0  0  0  0  0
  139.6512  159.0403  132.3992 H   0  0  0  0  0  0  0  0  0  0  0  0
  138.1248  158.0934  132.3992 H   0  0  0  0  0  0  0  0  0  0  0  0
  139.2545  156.5136  133.6875 H   0  0  0  0  0  0  0  0  0  0  0  0
  141.4445  156.6809  134.1925 H   0  0  0  0  0  0  0  0  0  0  0  0
  141.2244  157.7355  132.7222 H   0  0  0  0  0  0  0  0  0  0  0  0
  142.4263  161.2450  134.3466 H   0  0  0  0  0  0  0  0  0  0  0  0
  144.7072  161.9847  133.6892 H   0  0  0  0  0  0  0  0  0  0  0  0
  147.2667  161.0592  132.8746 H   0  0  0  0  0  0  0  0  0  0  0  0
  149.4200  156.8820  131.4490 H   0  0  0  0  0  0  0  0  0  0  0  0
  149.9830  157.2220  133.1770 H   0  0  0  0  0  0  0  0  0  0  0  0
  147.0920  155.2380  131.4590 H   0  0  0  0  0  0  0  0  0  0  0  0
  143.6541  157.1645  133.7984 H   0  0  0  0  0  0  0  0  0  0  0  0
  141.5025  159.7207  136.3240 H   0  0  0  0  0  0  0  0  0  0  0  0
  140.2596  160.1966  135.1190 H   0  0  0  0  0  0  0  0  0  0  0  0
  139.2089  158.9211  136.7716 H   0  0  0  0  0  0  0  0  0  0  0  0
  140.4194  157.5416  138.0484 H   0  0  0  0  0  0  0  0  0  0  0  0
  140.1854  156.3021  136.7695 H   0  0  0  0  0  0  0  0  0  0  0  0
  141.6621  157.3249  136.7695 H   0  0  0  0  0  0  0  0  0  0  0  0
  1  2  1  0
  2  3  1  0
  3  4  1  0
  4  5  1  0
  5  6  2  0
  6  7  1  0
  7  8  2  0
  8  9  1  0
  9 10  2  0
 10 11  1  0
 11 12  1  0
 11 13  2  0
 10 14  1  0
 14 15  1  0
 15 16  2  0
 15 17  1  0
 14 18  1  0
 18 19  2  0
  4 20  1  0
 20 21  1  0
 21 22  1  0
 21 23  1  0
 23  2  1  0
 19  5  1  0
 18  8  1  0
  1 24  1  0
  1 25  1  0
  1 26  1  0
  2 27  1  6
  3 28  1  0
  3 29  1  0
  6 30  1  0
  7 31  1  0
  9 32  1  0
 12 33  1  0
 12 34  1  0
 17 35  1  0
 19 36  1  0
 20 37  1  0
 20 38  1  0
 21 39  1  1
 22 40  1  0
 22 41  1  0
 22 42  1  0
M  END
>  <smiles>  (76) 
CC1CN(c2ccc3cc(C(N)=O)n(C(=O)O)c3c2)CC(C)O1

>  <score_type>  (76) 
oracle

>  <origin>  (76) 
adg

>  <m_score__min__energy>  (76) 
-8.5

>  <m_primary>  (76) 
energy

$$$$
80:0
     RDKit          3D

 48 50  0  0  0  0  0  0  0  0999 V2000
  138.7660  157.7110  133.8100 C   0  0  0  0  0  0  0  0  0  0  0  0
  139.3610  158.7350  132.9560 N   0  0  0  0  0  0  0  0  0  0  0  0
  138.9080  158.7950  131.5730 C   0  0  0  0  0  0  0  0  0  0  0  0
  140.3510  159.6480  133.4610 C   0  0  0  0  0  0  0  0  0  0  0  0
  140.8750  160.5350  132.7450 O   0  0  0  0  0  0  0  0  0  0  0  0
  140.7230  159.5240  134.7830 O   0  0  0  0  0  0  0  0  0  0  0  0
  141.5680  158.5350  135.2830 C   0  0  0  0  0  0  0  0  0  0  0  0
  142.9380  158.7840  135.1480 O   0  0  0  0  0  0  0  0  0  0  0  0
  143.6120  158.4780  133.9580 C   0  0  0  0  0  0  0  0  0  0  0  0
  143.0100  157.6770  133.2030 O   0  0  0  0  0  0  0  0  0  0  0  0
  144.8730  159.0610  133.6870 N   0  0  0  0  0  0  0  0  0  0  0  0
  145.1630  160.3670  133.6700 C   0  0  0  0  0  0  0  0  0  0  0  0
  144.3510  161.5360  133.9020 C   0  0  0  0  0  0  0  0  0  0  0  0
  142.9210  161.4530  133.7370 N   0  0  0  0  0  0  0  0  0  0  0  0
  144.7680  162.6660  134.2460 O   0  0  0  0  0  0  0  0  0  0  0  0
  146.5270  160.4610  133.3570 C   0  0  0  0  0  0  0  0  0  0  0  0
  147.0460  159.2000  133.1880 C   0  0  0  0  0  0  0  0  0  0  0  0
  148.3270  158.7670  132.8740 C   0  0  0  0  0  0  0  0  0  0  0  0
  148.5630  157.4140  132.7670 C   0  0  0  0  0  0  0  0  0  0  0  0
  147.5410  156.5160  132.9690 C   0  0  0  0  0  0  0  0  0  0  0  0
  147.7780  155.0750  132.8570 C   0  0  0  0  0  0  0  0  0  0  0  0
  149.0370  154.5430  132.6590 C   0  0  0  0  0  0  0  0  0  0  0  0
  149.1600  153.1690  132.5660 C   0  0  0  0  0  0  0  0  0  0  0  0
  148.0520  152.3680  132.6700 C   0  0  0  0  0  0  0  0  0  0  0  0
  148.2490  150.9890  132.5670 O   0  0  0  0  0  0  0  0  0  0  0  0
  146.8040  152.8870  132.8660 C   0  0  0  0  0  0  0  0  0  0  0  0
  146.6500  154.2550  132.9630 C   0  0  0  0  0  0  0  0  0  0  0  0
  146.2720  156.9890  133.2830 C   0  0  0  0  0  0  0  0  0  0  0  0
  145.9940  158.3370  133.3990 C   0  0  0  0  0  0  0  0  0  0  0  0
  138.9213  157.9783  134.8657 H   0  0  0  0  0  0  0  0  0  0  0  0
  137.6876  157.6428  133.6039 H   0  0  0  0  0  0  0  0  0  0  0  0
  139.2408  156.7404  133.6039 H   0  0  0  0  0  0  0  0  0  0  0  0
  137.8178  158.9394  131.5502 H   0  0  0  0  0  0  0  0  0  0  0  0
  139.4000  159.6358  131.0622 H   0  0  0  0  0  0  0  0  0  0  0  0
  139.1641  157.8551  131.0622 H   0  0  0  0  0  0  0  0  0  0  0  0
  141.3502  158.4140  136.3544 H   0  0  0  0  0  0  0  0  0  0  0  0
  141.3656  157.6355  134.6830 H   0  0  0  0  0  0  0  0  0  0  0  0
  142.4340  161.9820  132.9770 H   0  0  0  0  0  0  0  0  0  0  0  0
  142.4060  160.8350  134.4220 H   0  0  0  0  0  0  0  0  0  0  0  0
  147.0935  161.3990  133.2616 H   0  0  0  0  0  0  0  0  0  0  0  0
  149.1391  159.4913  132.7135 H   0  0  0  0  0  0  0  0  0  0  0  0
  149.5714  157.0509  132.5194 H   0  0  0  0  0  0  0  0  0  0  0  0
  149.9189  155.1954  132.5774 H   0  0  0  0  0  0  0  0  0  0  0  0
  150.1503  152.7169  132.4080 H   0  0  0  0  0  0  0  0  0  0  0  0
  147.8870  150.3620  133.2760 H   0  0  0  0  0  0  0  0  0  0  0  0
  145.9314  152.2221  132.9457 H   0  0  0  0  0  0  0  0  0  0  0  0
  145.6540  154.6943  133.1215 H   0  0  0  0  0  0  0  0  0  0  0  0
  145.4606  156.2641  133.4448 H   0  0  0  0  0  0  0  0  0  0  0  0
  1  2  1  0
  2  3  1  0
  2  4  1  0
  4  5  2  0
  4  6  1  0
  6  7  1  0
  7  8  1  0
  8  9  1  0
  9 10  2  0
  9 11  1  0
 11 12  1  0
 12 13  1  0
 13 14  1  0
 13 15  2  0
 12 16  2  0
 16 17  1  0
 17 18  2  0
 18 19  1  0
 19 20  2  0
 20 21  1  0
 21 22  2  0
 22 23  1  0
 23 24  2  0
 24 25  1  0
 24 26  1  0
 26 27  2  0
 20 28  1  0
 28 29  2  0
 29 11  1  0
 29 17  1  0
 27 21  1  0
  1 30  1  0
  1 31  1  0
  1 32  1  0
  3 33  1  0
  3 34  1  0
  3 35  1  0
  7 36  1  0
  7 37  1  0
 14 38  1  0
 14 39  1  0
 16 40  1  0
 18 41  1  0
 19 42  1  0
 22 43  1  0
 23 44  1  0
 25 45  1  0
 26 46  1  0
 27 47  1  0
 28 48  1  0
M  END
>  <smiles>  (77) 
CN(C)C(=O)OCOC(=O)n1c(C(N)=O)cc2ccc(-c3ccc(O)cc3)cc21

>  <score_type>  (77) 
oracle

>  <origin>  (77) 
adg

>  <m_score__min__energy>  (77) 
-8.3000000000000007

>  <m_primary>  (77) 
energy

$$$$
81:0
     RDKit          3D

 42 43  0  0  0  0  0  0  0  0999 V2000
  148.9650  150.3540  132.9420 C   0  0  0  0  0  0  0  0  0  0  0  0
  148.6500  151.5410  132.2820 O   0  0  0  0  0  0  0  0  0  0  0  0
  149.7050  152.4190  132.2850 C   0  0  0  0  0  0  0  0  0  0  0  0
  149.2810  153.7960  132.6460 C   0  0  0  0  0  0  0  0  0  0  0  0
  147.9160  154.0710  132.6260 O   0  0  0  0  0  0  0  0  0  0  0  0
  147.1790  154.9710  133.3330 C   0  0  0  0  0  0  0  0  0  0  0  0
  147.8040  155.7070  134.1550 O   0  0  0  0  0  0  0  0  0  0  0  0
  145.7670  155.1540  133.2270 N   0  0  0  0  0  0  0  0  0  0  0  0
  144.8460  154.1940  133.0420 C   0  0  0  0  0  0  0  0  0  0  0  0
  144.9750  152.7580  132.9020 C   0  0  0  0  0  0  0  0  0  0  0  0
  146.2630  152.1900  132.5630 N   0  0  0  0  0  0  0  0  0  0  0  0
  144.0630  151.9170  133.0460 O   0  0  0  0  0  0  0  0  0  0  0  0
  143.6180  154.8350  133.0010 C   0  0  0  0  0  0  0  0  0  0  0  0
  143.7920  156.1770  133.1600 C   0  0  0  0  0  0  0  0  0  0  0  0
  142.8750  157.2050  133.1870 C   0  0  0  0  0  0  0  0  0  0  0  0
  143.3740  158.4840  133.3690 C   0  0  0  0  0  0  0  0  0  0  0  0
  144.7150  158.7570  133.5170 C   0  0  0  0  0  0  0  0  0  0  0  0
  145.2450  160.0580  133.7000 N   0  0  0  0  0  0  0  0  0  0  0  0
  146.6680  160.2830  133.4300 C   0  0  0  0  0  0  0  0  0  0  0  0
  144.4910  161.2040  134.1390 C   0  0  0  0  0  0  0  0  0  0  0  0
  145.4670  162.2450  134.4710 C   0  0  0  0  0  0  0  0  0  0  0  0
  146.2410  163.0710  134.7130 N   0  0  0  0  0  0  0  0  0  0  0  0
  145.5750  157.6670  133.4770 C   0  0  0  0  0  0  0  0  0  0  0  0
  145.1470  156.3710  133.3020 C   0  0  0  0  0  0  0  0  0  0  0  0
  148.9219  150.5164  134.0291 H   0  0  0  0  0  0  0  0  0  0  0  0
  148.2427  149.5742  132.6588 H   0  0  0  0  0  0  0  0  0  0  0  0
  149.9789  150.0349  132.6588 H   0  0  0  0  0  0  0  0  0  0  0  0
  150.4520  152.0743  133.0153 H   0  0  0  0  0  0  0  0  0  0  0  0
  150.1261  152.4481  131.2692 H   0  0  0  0  0  0  0  0  0  0  0  0
  149.6433  153.9966  133.6651 H   0  0  0  0  0  0  0  0  0  0  0  0
  149.7093  154.4375  131.8617 H   0  0  0  0  0  0  0  0  0  0  0  0
  146.8310  152.6560  131.8030 H   0  0  0  0  0  0  0  0  0  0  0  0
  146.6150  151.3390  133.0630 H   0  0  0  0  0  0  0  0  0  0  0  0
  142.6481  154.3353  132.8611 H   0  0  0  0  0  0  0  0  0  0  0  0
  141.7973  157.0186  133.0695 H   0  0  0  0  0  0  0  0  0  0  0  0
  142.6635  159.3233  133.3967 H   0  0  0  0  0  0  0  0  0  0  0  0
  147.2127  160.3691  134.3818 H   0  0  0  0  0  0  0  0  0  0  0  0
  147.0699  159.4372  132.8528 H   0  0  0  0  0  0  0  0  0  0  0  0
  146.7894  161.2115  132.8528 H   0  0  0  0  0  0  0  0  0  0  0  0
  143.8249  161.5507  133.3352 H   0  0  0  0  0  0  0  0  0  0  0  0
  143.8635  160.9568  135.0080 H   0  0  0  0  0  0  0  0  0  0  0  0
  146.6538  157.8492  133.5911 H   0  0  0  0  0  0  0  0  0  0  0  0
  1  2  1  0
  2  3  1  0
  3  4  1  0
  4  5  1  0
  5  6  1  0
  6  7  2  0
  6  8  1  0
  8  9  1  0
  9 10  1  0
 10 11  1  0
 10 12  2  0
  9 13  2  0
 13 14  1  0
 14 15  2  0
 15 16  1  0
 16 17  2  0
 17 18  1  0
 18 19  1  0
 18 20  1  0
 20 21  1  0
 21 22  3  0
 17 23  1  0
 23 24  2  0
 24  8  1  0
 24 14  1  0
  1 25  1  0
  1 26  1  0
  1 27  1  0
  3 28  1  0
  3 29  1  0
  4 30  1  0
  4 31  1  0
 11 32  1  0
 11 33  1  0
 13 34  1  0
 15 35  1  0
 16 36  1  0
 19 37  1  0
 19 38  1  0
 19 39  1  0
 20 40  1  0
 20 41  1  0
 23 42  1  0
M  END
>  <smiles>  (78) 
COCCOC(=O)n1c(C(N)=O)cc2ccc(N(C)CC#N)cc21

>  <score_type>  (78) 
oracle

>  <origin>  (78) 
adg

>  <m_score__min__energy>  (78) 
-6.3399999999999999

>  <m_primary>  (78) 
energy

$$$$
82:0
     RDKit          3D

 69 70  0  0  0  0  0  0  0  0999 V2000
  144.9180  161.6820  134.1410 C   0  0  0  0  0  0  0  0  0  0  0  0
  145.6400  160.7590  133.8020 C   0  0  0  0  0  0  0  0  0  0  0  0
  146.5070  159.6840  133.4120 C   0  0  0  0  0  0  0  0  0  0  0  0
  147.5770  159.9830  132.5980 C   0  0  0  0  0  0  0  0  0  0  0  0
  148.4230  158.9660  132.2120 C   0  0  0  0  0  0  0  0  0  0  0  0
  148.1870  157.6800  132.6430 C   0  0  0  0  0  0  0  0  0  0  0  0
  148.8630  156.5030  132.4080 C   0  0  0  0  0  0  0  0  0  0  0  0
  148.2190  155.4500  133.0790 C   0  0  0  0  0  0  0  0  0  0  0  0
  148.7100  154.1040  133.0100 C   0  0  0  0  0  0  0  0  0  0  0  0
  149.3310  153.4580  131.9230 N   0  0  0  0  0  0  0  0  0  0  0  0
  148.5780  153.3850  134.0520 O   0  0  0  0  0  0  0  0  0  0  0  0
  147.1600  155.9960  133.7120 N   0  0  0  0  0  0  0  0  0  0  0  0
  146.2110  155.3270  134.5170 C   0  0  0  0  0  0  0  0  0  0  0  0
  146.4550  154.8010  135.6270 O   0  0  0  0  0  0  0  0  0  0  0  0
  144.9090  155.2300  134.0700 O   0  0  0  0  0  0  0  0  0  0  0  0
  143.8330  155.5040  134.9180 C   0  0  0  0  0  0  0  0  0  0  0  0
  142.7950  154.4220  134.8010 C   0  0  0  0  0  0  0  0  0  0  0  0
  141.9960  154.4660  135.9860 O   0  0  0  0  0  0  0  0  0  0  0  0
  142.5400  154.3960  137.2520 C   0  0  0  0  0  0  0  0  0  0  0  0
  143.5690  153.7890  137.5640 O   0  0  0  0  0  0  0  0  0  0  0  0
  141.8520  155.0930  138.3100 N   0  0  0  0  0  0  0  0  0  0  0  0
  142.2000  154.8680  139.7130 C   0  0  0  0  0  0  0  0  0  0  0  0
  140.7960  156.0420  138.0520 C   0  0  0  0  0  0  0  0  0  0  0  0
  141.2820  157.4390  137.8180 C   0  0  0  0  0  0  0  0  0  0  0  0
  140.5650  158.1720  136.8200 N   0  0  0  0  0  0  0  0  0  0  0  0
  139.5460  157.4610  136.0550 C   0  0  0  0  0  0  0  0  0  0  0  0
  140.7640  159.5340  136.5130 C   0  0  0  0  0  0  0  0  0  0  0  0
  140.6160  160.4700  137.3680 O   0  0  0  0  0  0  0  0  0  0  0  0
  141.1420  159.9740  135.2340 O   0  0  0  0  0  0  0  0  0  0  0  0
  142.4980  159.7410  134.8550 C   0  0  0  0  0  0  0  0  0  0  0  0
  142.6080  158.3110  134.7770 O   0  0  0  0  0  0  0  0  0  0  0  0
  142.3490  157.7890  133.4970 C   0  0  0  0  0  0  0  0  0  0  0  0
  143.1570  158.1390  132.5990 O   0  0  0  0  0  0  0  0  0  0  0  0
  141.1940  156.8960  133.2760 C   0  0  0  0  0  0  0  0  0  0  0  0
  140.3870  157.4470  132.2590 O   0  0  0  0  0  0  0  0  0  0  0  0
  139.4680  158.4200  132.6270 C   0  0  0  0  0  0  0  0  0  0  0  0
  138.4020  158.1340  133.2710 O   0  0  0  0  0  0  0  0  0  0  0  0
  139.6450  159.8650  132.3060 C   0  0  0  0  0  0  0  0  0  0  0  0
  141.0370  160.0830  132.2560 O   0  0  0  0  0  0  0  0  0  0  0  0
  147.1310  157.3380  133.4560 C   0  0  0  0  0  0  0  0  0  0  0  0
  146.2910  158.3710  133.8350 C   0  0  0  0  0  0  0  0  0  0  0  0
  144.2670  162.5143  134.4467 H   0  0  0  0  0  0  0  0  0  0  0  0
  147.7532  161.0155  132.2619 H   0  0  0  0  0  0  0  0  0  0  0  0
  149.2838  159.1810  131.5618 H   0  0  0  0  0  0  0  0  0  0  0  0
  149.7676  156.4030  131.7902 H   0  0  0  0  0  0  0  0  0  0  0  0
  150.3780  153.4950  131.8280 H   0  0  0  0  0  0  0  0  0  0  0  0
  148.7150  152.9450  131.2360 H   0  0  0  0  0  0  0  0  0  0  0  0
  144.1916  155.5535  135.9567 H   0  0  0  0  0  0  0  0  0  0  0  0
  143.3841  156.4664  134.6311 H   0  0  0  0  0  0  0  0  0  0  0  0
  142.1656  154.5989  133.9164 H   0  0  0  0  0  0  0  0  0  0  0  0
  143.2717  153.4368  134.6903 H   0  0  0  0  0  0  0  0  0  0  0  0
  141.4520  155.3516  140.3584 H   0  0  0  0  0  0  0  0  0  0  0  0
  142.2172  153.7874  139.9178 H   0  0  0  0  0  0  0  0  0  0  0  0
  143.1925  155.2958  139.9178 H   0  0  0  0  0  0  0  0  0  0  0  0
  140.2444  155.7127  137.1591 H   0  0  0  0  0  0  0  0  0  0  0  0
  140.1635  156.0696  138.9516 H   0  0  0  0  0  0  0  0  0  0  0  0
  141.2047  157.9901  138.7668 H   0  0  0  0  0  0  0  0  0  0  0  0
  142.3137  157.3464  137.4479 H   0  0  0  0  0  0  0  0  0  0  0  0
  138.8440  156.9712  136.7459 H   0  0  0  0  0  0  0  0  0  0  0  0
  138.9990  158.1745  135.4212 H   0  0  0  0  0  0  0  0  0  0  0  0
  140.0268  156.7013  135.4212 H   0  0  0  0  0  0  0  0  0  0  0  0
  142.7139  160.2015  133.8796 H   0  0  0  0  0  0  0  0  0  0  0  0
  143.2129  160.1776  135.5679 H   0  0  0  0  0  0  0  0  0  0  0  0
  141.5484  155.9008  132.9694 H   0  0  0  0  0  0  0  0  0  0  0  0
  140.6127  156.7969  134.2046 H   0  0  0  0  0  0  0  0  0  0  0  0
  139.1860  160.0999  131.3344 H   0  0  0  0  0  0  0  0  0  0  0  0
  139.1628  160.5073  133.0576 H   0  0  0  0  0  0  0  0  0  0  0  0
  141.4770  159.2710  131.8500 H   0  0  0  0  0  0  0  0  0  0  0  0
  145.4317  158.1519  134.4858 H   0  0  0  0  0  0  0  0  0  0  0  0
  1  2  3  0
  2  3  1  0
  3  4  2  0
  4  5  1  0
  5  6  2  0
  6  7  1  0
  7  8  2  0
  8  9  1  0
  9 10  1  0
  9 11  2  0
  8 12  1  0
 12 13  1  0
 13 14  2  0
 13 15  1  0
 15 16  1  0
 16 17  1  0
 17 18  1  0
 18 19  1  0
 19 20  2  0
 19 21  1  0
 21 22  1  0
 21 23  1  0
 23 24  1  0
 24 25  1  0
 25 26  1  0
 25 27  1  0
 27 28  2  0
 27 29  1  0
 29 30  1  0
 30 31  1  0
 31 32  1  0
 32 33  2  0
 32 34  1  0
 34 35  1  0
 35 36  1  0
 36 37  2  0
 36 38  1  0
 38 39  1  0
 12 40  1  0
 40 41  2  0
 41  3  1  0
 40  6  1  0
  1 42  1  0
  4 43  1  0
  5 44  1  0
  7 45  1  0
 10 46  1  0
 10 47  1  0
 16 48  1  0
 16 49  1  0
 17 50  1  0
 17 51  1  0
 22 52  1  0
 22 53  1  0
 22 54  1  0
 23 55  1  0
 23 56  1  0
 24 57  1  0
 24 58  1  0
 26 59  1  0
 26 60  1  0
 26 61  1  0
 30 62  1  0
 30 63  1  0
 34 64  1  0
 34 65  1  0
 38 66  1  0
 38 67  1  0
 39 68  1  0
 41 69  1  0
M  END
>  <smiles>  (79) 
C#Cc1ccc2cc(C(N)=O)n(C(=O)OCCOC(=O)N(C)CCN(C)C(=O)OCOC(=O)COC(=O)CO)c2c1

>  <score_type>  (79) 
oracle

>  <origin>  (79) 
adg

>  <m_score__min__energy>  (79) 
-7.2300000000000004

>  <m_primary>  (79) 
energy

$$$$
83:0
     RDKit          3D

 49 51  0  0  0  0  0  0  0  0999 V2000
  149.1360  160.5000  130.6750 C   0  0  0  0  0  0  0  0  0  0  0  0
  148.7960  159.6970  131.9000 C   0  0  0  0  0  0  0  0  0  0  0  0
  147.8390  160.4540  132.6290 O   0  0  0  0  0  0  0  0  0  0  0  0
  146.6810  159.8170  133.0460 C   0  0  0  0  0  0  0  0  0  0  0  0
  145.6470  160.4220  133.4240 O   0  0  0  0  0  0  0  0  0  0  0  0
  146.6650  158.3150  133.0470 C   0  0  0  0  0  0  0  0  0  0  0  0
  145.3750  157.8990  133.4940 N   0  0  0  0  0  0  0  0  0  0  0  0
  144.9590  156.5380  133.2790 C   0  0  0  0  0  0  0  0  0  0  0  0
  145.9140  155.6130  132.9740 C   0  0  0  0  0  0  0  0  0  0  0  0
  145.5220  154.3110  132.7690 C   0  0  0  0  0  0  0  0  0  0  0  0
  144.1930  153.9700  132.8740 C   0  0  0  0  0  0  0  0  0  0  0  0
  143.5600  152.7640  132.7160 C   0  0  0  0  0  0  0  0  0  0  0  0
  142.1750  152.9250  132.9250 C   0  0  0  0  0  0  0  0  0  0  0  0
  141.2840  151.8140  132.8210 C   0  0  0  0  0  0  0  0  0  0  0  0
  139.9610  151.7490  132.3570 N   0  0  0  0  0  0  0  0  0  0  0  0
  141.7470  150.6700  133.2100 O   0  0  0  0  0  0  0  0  0  0  0  0
  141.9900  154.2440  133.2100 N   0  0  0  0  0  0  0  0  0  0  0  0
  140.7490  154.8430  133.4790 C   0  0  0  0  0  0  0  0  0  0  0  0
  139.6540  154.4040  132.9800 O   0  0  0  0  0  0  0  0  0  0  0  0
  140.5180  156.0360  134.3520 C   0  0  0  0  0  0  0  0  0  0  0  0
  140.1840  157.2130  133.4330 C   0  0  0  0  0  0  0  0  0  0  0  0
  139.1260  157.1810  132.5800 C   0  0  0  0  0  0  0  0  0  0  0  0
  138.9070  158.3010  131.7890 C   0  0  0  0  0  0  0  0  0  0  0  0
  139.7140  159.4180  131.8390 C   0  0  0  0  0  0  0  0  0  0  0  0
  140.7960  159.4490  132.7100 C   0  0  0  0  0  0  0  0  0  0  0  0
  140.9900  158.3120  133.4930 C   0  0  0  0  0  0  0  0  0  0  0  0
  142.0600  158.3690  134.3410 F   0  0  0  0  0  0  0  0  0  0  0  0
  143.1920  154.8730  133.1810 C   0  0  0  0  0  0  0  0  0  0  0  0
  143.6280  156.1750  133.3800 C   0  0  0  0  0  0  0  0  0  0  0  0
  149.5483  161.4738  130.9777 H   0  0  0  0  0  0  0  0  0  0  0  0
  149.8813  159.9566  130.0756 H   0  0  0  0  0  0  0  0  0  0  0  0
  148.2271  160.6570  130.0756 H   0  0  0  0  0  0  0  0  0  0  0  0
  148.3703  158.7249  131.6105 H   0  0  0  0  0  0  0  0  0  0  0  0
  149.6921  159.5005  132.5069 H   0  0  0  0  0  0  0  0  0  0  0  0
  146.8500  157.9370  132.0307 H   0  0  0  0  0  0  0  0  0  0  0  0
  147.4498  157.9201  133.7089 H   0  0  0  0  0  0  0  0  0  0  0  0
  144.6960  158.5520  133.9850 H   0  0  0  0  0  0  0  0  0  0  0  0
  146.9724  155.9017  132.8939 H   0  0  0  0  0  0  0  0  0  0  0  0
  146.2697  153.5432  132.5214 H   0  0  0  0  0  0  0  0  0  0  0  0
  144.0570  151.8155  132.4645 H   0  0  0  0  0  0  0  0  0  0  0  0
  139.8370  151.5110  131.3260 H   0  0  0  0  0  0  0  0  0  0  0  0
  139.1120  151.9090  132.9800 H   0  0  0  0  0  0  0  0  0  0  0  0
  139.6798  155.8441  135.0380 H   0  0  0  0  0  0  0  0  0  0  0  0
  141.4100  156.2548  134.9573 H   0  0  0  0  0  0  0  0  0  0  0  0
  138.4684  156.3013  132.5187 H   0  0  0  0  0  0  0  0  0  0  0  0
  138.0546  158.2970  131.0938 H   0  0  0  0  0  0  0  0  0  0  0  0
  139.5018  160.2816  131.1915 H   0  0  0  0  0  0  0  0  0  0  0  0
  141.4622  160.3217  132.7780 H   0  0  0  0  0  0  0  0  0  0  0  0
  142.8864  156.9487  133.6277 H   0  0  0  0  0  0  0  0  0  0  0  0
  1  2  1  0
  2  3  1  0
  3  4  1  0
  4  5  2  0
  4  6  1  0
  6  7  1  0
  7  8  1  0
  8  9  2  0
  9 10  1  0
 10 11  2  0
 11 12  1  0
 12 13  2  0
 13 14  1  0
 14 15  1  0
 14 16  2  0
 13 17  1  0
 17 18  1  0
 18 19  2  0
 18 20  1  0
 20 21  1  0
 21 22  2  0
 22 23  1  0
 23 24  2  0
 24 25  1  0
 25 26  2  0
 26 27  1  0
 17 28  1  0
 28 29  2  0
 29  8  1  0
 28 11  1  0
 26 21  1  0
  1 30  1  0
  1 31  1  0
  1 32  1  0
  2 33  1  0
  2 34  1  0
  6 35  1  0
  6 36  1  0
  7 37  1  0
  9 38  1  0
 10 39  1  0
 12 40  1  0
 15 41  1  0
 15 42  1  0
 20 43  1  0
 20 44  1  0
 22 45  1  0
 23 46  1  0
 24 47  1  0
 25 48  1  0
 29 49  1  0
M  END
>  <smiles>  (80) 
CCOC(=O)CNc1ccc2cc(C(N)=O)n(C(=O)Cc3ccccc3F)c2c1

>  <score_type>  (80) 
oracle

>  <origin>  (80) 
adg

>  <m_score__min__energy>  (80) 
-8.6899999999999995

>  <m_primary>  (80) 
energy

$$$$
84:0
     RDKit          3D

 48 50  0  0  0  0  0  0  0  0999 V2000
  148.5610  157.9080  131.9300 C   0  0  0  0  0  0  0  0  0  0  0  0
  148.1580  159.2770  132.4400 C   0  0  0  0  0  0  0  0  0  0  0  0
  148.6020  159.3520  133.8960 C   0  0  0  0  0  0  0  0  0  0  0  0
  148.9340  160.3440  131.7050 C   0  0  0  0  0  0  0  0  0  0  0  0
  146.7730  159.4670  132.4350 O   0  0  0  0  0  0  0  0  0  0  0  0
  145.8640  158.7880  133.2030 C   0  0  0  0  0  0  0  0  0  0  0  0
  146.2150  157.6080  133.5310 O   0  0  0  0  0  0  0  0  0  0  0  0
  144.6110  159.2680  133.6480 N   0  0  0  0  0  0  0  0  0  0  0  0
  144.2690  160.5310  133.9570 C   0  0  0  0  0  0  0  0  0  0  0  0
  145.0130  161.7630  133.9440 C   0  0  0  0  0  0  0  0  0  0  0  0
  146.4170  161.9170  133.9270 N   0  0  0  0  0  0  0  0  0  0  0  0
  144.3670  162.8650  133.9470 O   0  0  0  0  0  0  0  0  0  0  0  0
  142.9180  160.4870  134.3440 C   0  0  0  0  0  0  0  0  0  0  0  0
  142.4640  159.2010  134.2640 C   0  0  0  0  0  0  0  0  0  0  0  0
  141.2280  158.6540  134.5340 C   0  0  0  0  0  0  0  0  0  0  0  0
  141.0150  157.3020  134.3720 C   0  0  0  0  0  0  0  0  0  0  0  0
  142.0540  156.5360  133.9420 C   0  0  0  0  0  0  0  0  0  0  0  0
  141.8500  155.0940  133.7630 C   0  0  0  0  0  0  0  0  0  0  0  0
  140.7690  154.5850  133.1430 N   0  0  0  0  0  0  0  0  0  0  0  0
  140.5780  153.2630  132.9780 C   0  0  0  0  0  0  0  0  0  0  0  0
  141.5110  152.3460  133.4510 C   0  0  0  0  0  0  0  0  0  0  0  0
  141.2930  150.8990  133.2640 C   0  0  0  0  0  0  0  0  0  0  0  0
  140.0790  150.6090  132.6630 O   0  0  0  0  0  0  0  0  0  0  0  0
  142.6500  152.8260  134.1010 C   0  0  0  0  0  0  0  0  0  0  0  0
  142.7940  154.1940  134.2430 C   0  0  0  0  0  0  0  0  0  0  0  0
  143.8810  154.7110  134.8670 F   0  0  0  0  0  0  0  0  0  0  0  0
  143.3070  157.0970  133.6700 C   0  0  0  0  0  0  0  0  0  0  0  0
  143.5360  158.4560  133.8270 C   0  0  0  0  0  0  0  0  0  0  0  0
  148.7571  157.2420  132.7832 H   0  0  0  0  0  0  0  0  0  0  0  0
  147.7476  157.4906  131.3183 H   0  0  0  0  0  0  0  0  0  0  0  0
  149.4708  157.9978  131.3183 H   0  0  0  0  0  0  0  0  0  0  0  0
  147.7319  159.2050  134.5527 H   0  0  0  0  0  0  0  0  0  0  0  0
  149.3469  158.5670  134.0931 H   0  0  0  0  0  0  0  0  0  0  0  0
  149.0477  160.3382  134.0931 H   0  0  0  0  0  0  0  0  0  0  0  0
  149.4193  161.0112  132.4325 H   0  0  0  0  0  0  0  0  0  0  0  0
  149.7003  159.8707  131.0736 H   0  0  0  0  0  0  0  0  0  0  0  0
  148.2476  160.9272  131.0736 H   0  0  0  0  0  0  0  0  0  0  0  0
  146.9470  161.9860  134.8340 H   0  0  0  0  0  0  0  0  0  0  0  0
  146.8770  161.9680  132.9860 H   0  0  0  0  0  0  0  0  0  0  0  0
  142.3195  161.3535  134.6618 H   0  0  0  0  0  0  0  0  0  0  0  0
  140.4076  159.2997  134.8805 H   0  0  0  0  0  0  0  0  0  0  0  0
  140.0327  156.8548  134.5843 H   0  0  0  0  0  0  0  0  0  0  0  0
  139.6745  152.9038  132.4636 H   0  0  0  0  0  0  0  0  0  0  0  0
  142.1010  150.5013  132.6324 H   0  0  0  0  0  0  0  0  0  0  0  0
  141.2862  150.4351  134.2614 H   0  0  0  0  0  0  0  0  0  0  0  0
  139.3030  150.9370  133.1810 H   0  0  0  0  0  0  0  0  0  0  0  0
  143.4121  152.1345  134.4896 H   0  0  0  0  0  0  0  0  0  0  0  0
  144.1256  156.4480  133.3253 H   0  0  0  0  0  0  0  0  0  0  0  0
  1  2  1  0
  2  3  1  0
  2  4  1  0
  2  5  1  0
  5  6  1  0
  6  7  2  0
  6  8  1  0
  8  9  1  0
  9 10  1  0
 10 11  1  0
 10 12  2  0
  9 13  2  0
 13 14  1  0
 14 15  2  0
 15 16  1  0
 16 17  2  0
 17 18  1  0
 18 19  2  0
 19 20  1  0
 20 21  2  0
 21 22  1  0
 22 23  1  0
 21 24  1  0
 24 25  2  0
 25 26  1  0
 17 27  1  0
 27 28  2  0
 28  8  1  0
 28 14  1  0
 25 18  1  0
  1 29  1  0
  1 30  1  0
  1 31  1  0
  3 32  1  0
  3 33  1  0
  3 34  1  0
  4 35  1  0
  4 36  1  0
  4 37  1  0
 11 38  1  0
 11 39  1  0
 13 40  1  0
 15 41  1  0
 16 42  1  0
 20 43  1  0
 22 44  1  0
 22 45  1  0
 23 46  1  0
 24 47  1  0
 27 48  1  0
M  END
>  <smiles>  (81) 
CC(C)(C)OC(=O)n1c(C(N)=O)cc2ccc(-c3ncc(CO)cc3F)cc21

>  <score_type>  (81) 
oracle

>  <origin>  (81) 
adg

>  <m_score__min__energy>  (81) 
-8.5199999999999996

>  <m_primary>  (81) 
energy

$$$$
85:0
     RDKit          3D

 50 51  0  0  0  0  0  0  0  0999 V2000
  149.1340  152.5900  132.3800 C   0  0  0  0  0  0  0  0  0  0  0  0
  148.7510  153.9980  132.6230 C   0  0  0  0  0  0  0  0  0  0  0  0
  149.6480  154.8350  132.5650 O   0  0  0  0  0  0  0  0  0  0  0  0
  147.3830  154.4730  132.9290 C   0  0  0  0  0  0  0  0  0  0  0  0
  147.1530  155.7850  132.5020 O   0  0  0  0  0  0  0  0  0  0  0  0
  146.1700  156.6130  132.9960 C   0  0  0  0  0  0  0  0  0  0  0  0
  145.1180  156.0230  133.3890 O   0  0  0  0  0  0  0  0  0  0  0  0
  146.2410  158.0210  133.0960 N   0  0  0  0  0  0  0  0  0  0  0  0
  147.3120  158.8170  132.8950 C   0  0  0  0  0  0  0  0  0  0  0  0
  148.6670  158.5280  132.5340 C   0  0  0  0  0  0  0  0  0  0  0  0
  149.2990  157.2690  132.4580 N   0  0  0  0  0  0  0  0  0  0  0  0
  149.4380  159.5120  132.2350 O   0  0  0  0  0  0  0  0  0  0  0  0
  146.8550  160.1270  133.1190 C   0  0  0  0  0  0  0  0  0  0  0  0
  145.5390  160.1080  133.4450 C   0  0  0  0  0  0  0  0  0  0  0  0
  144.6630  161.1370  133.7480 C   0  0  0  0  0  0  0  0  0  0  0  0
  143.3520  160.8590  134.0520 C   0  0  0  0  0  0  0  0  0  0  0  0
  142.9410  159.5440  134.0450 C   0  0  0  0  0  0  0  0  0  0  0  0
  141.5920  159.2320  134.3550 N   0  0  0  0  0  0  0  0  0  0  0  0
  141.2050  158.9600  135.7040 C   0  0  0  0  0  0  0  0  0  0  0  0
  140.3330  157.7290  135.8280 C   0  0  0  0  0  0  0  0  0  0  0  0
  139.2220  157.8640  134.8140 C   0  0  0  0  0  0  0  0  0  0  0  0
  139.6180  157.4830  133.4730 N   0  0  0  0  0  0  0  0  0  0  0  0
  138.7490  158.2460  132.5790 C   0  0  0  0  0  0  0  0  0  0  0  0
  139.5200  156.0730  133.2480 C   0  0  0  0  0  0  0  0  0  0  0  0
  143.8410  158.5180  133.7350 C   0  0  0  0  0  0  0  0  0  0  0  0
  145.1600  158.7830  133.4290 C   0  0  0  0  0  0  0  0  0  0  0  0
  149.2737  152.0766  133.3428 H   0  0  0  0  0  0  0  0  0  0  0  0
  148.3399  152.0874  131.8083 H   0  0  0  0  0  0  0  0  0  0  0  0
  150.0732  152.5589  131.8083 H   0  0  0  0  0  0  0  0  0  0  0  0
  146.6615  153.8099  132.4293 H   0  0  0  0  0  0  0  0  0  0  0  0
  147.2654  154.4569  134.0226 H   0  0  0  0  0  0  0  0  0  0  0  0
  149.2870  156.7330  131.5450 H   0  0  0  0  0  0  0  0  0  0  0  0
  149.7810  156.8940  133.3200 H   0  0  0  0  0  0  0  0  0  0  0  0
  147.4733  161.0335  133.0414 H   0  0  0  0  0  0  0  0  0  0  0  0
  145.0172  162.1784  133.7453 H   0  0  0  0  0  0  0  0  0  0  0  0
  142.6471  161.6676  134.2953 H   0  0  0  0  0  0  0  0  0  0  0  0
  140.8800  159.2010  133.6020 H   0  0  0  0  0  0  0  0  0  0  0  0
  142.1130  158.8095  136.3064 H   0  0  0  0  0  0  0  0  0  0  0  0
  140.6170  159.8191  136.0591 H   0  0  0  0  0  0  0  0  0  0  0  0
  140.9250  156.8255  135.6203 H   0  0  0  0  0  0  0  0  0  0  0  0
  139.9242  157.6413  136.8454 H   0  0  0  0  0  0  0  0  0  0  0  0
  138.3850  157.2221  135.1261 H   0  0  0  0  0  0  0  0  0  0  0  0
  138.9404  158.9268  134.7801 H   0  0  0  0  0  0  0  0  0  0  0  0
  138.0544  158.8559  133.1752 H   0  0  0  0  0  0  0  0  0  0  0  0
  139.3619  158.9031  131.9445 H   0  0  0  0  0  0  0  0  0  0  0  0
  138.1767  157.5532  131.9445 H   0  0  0  0  0  0  0  0  0  0  0  0
  139.4836  155.5491  134.2146 H   0  0  0  0  0  0  0  0  0  0  0  0
  138.6046  155.8554  132.6783 H   0  0  0  0  0  0  0  0  0  0  0  0
  140.3965  155.7308  132.6783 H   0  0  0  0  0  0  0  0  0  0  0  0
  143.4885  157.4760  133.7353 H   0  0  0  0  0  0  0  0  0  0  0  0
  1  2  1  0
  2  3  2  0
  2  4  1  0
  4  5  1  0
  5  6  1  0
  6  7  2  0
  6  8  1  0
  8  9  1  0
  9 10  1  0
 10 11  1  0
 10 12  2  0
  9 13  2  0
 13 14  1  0
 14 15  2  0
 15 16  1  0
 16 17  2  0
 17 18  1  0
 18 19  1  0
 19 20  1  0
 20 21  1  0
 21 22  1  0
 22 23  1  0
 22 24  1  0
 17 25  1  0
 25 26  2  0
 26  8  1  0
 26 14  1  0
  1 27  1  0
  1 28  1  0
  1 29  1  0
  4 30  1  0
  4 31  1  0
 11 32  1  0
 11 33  1  0
 13 34  1  0
 15 35  1  0
 16 36  1  0
 18 37  1  0
 19 38  1  0
 19 39  1  0
 20 40  1  0
 20 41  1  0
 21 42  1  0
 21 43  1  0
 23 44  1  0
 23 45  1  0
 23 46  1  0
 24 47  1  0
 24 48  1  0
 24 49  1  0
 25 50  1  0
M  END
>  <smiles>  (82) 
CC(=O)COC(=O)n1c(C(N)=O)cc2ccc(NCCCN(C)C)cc21

>  <score_type>  (82) 
oracle

>  <origin>  (82) 
adg

>  <m_score__min__energy>  (82) 
-7.6799999999999997

>  <m_primary>  (82) 
energy

$$$$
86:0
     RDKit          3D

 45 47  0  0  0  0  0  0  0  0999 V2000
  148.5950  155.7740  132.6100 C   0  0  0  0  0  0  0  0  0  0  0  0
  148.8880  157.1510  133.0060 N   0  0  0  0  0  0  0  0  0  0  0  0
  147.8300  158.0820  133.1460 C   0  0  0  0  0  0  0  0  0  0  0  0
  148.1320  159.4160  133.3080 C   0  0  0  0  0  0  0  0  0  0  0  0
  147.1090  160.2970  133.4410 C   0  0  0  0  0  0  0  0  0  0  0  0
  145.8040  159.8470  133.4130 C   0  0  0  0  0  0  0  0  0  0  0  0
  144.6510  160.5540  133.5280 C   0  0  0  0  0  0  0  0  0  0  0  0
  143.6280  159.6190  133.4300 C   0  0  0  0  0  0  0  0  0  0  0  0
  142.2330  160.0850  133.3950 C   0  0  0  0  0  0  0  0  0  0  0  0
  141.2410  159.3810  132.6280 N   0  0  0  0  0  0  0  0  0  0  0  0
  141.8220  161.0930  134.0110 O   0  0  0  0  0  0  0  0  0  0  0  0
  144.0760  158.3820  133.2710 N   0  0  0  0  0  0  0  0  0  0  0  0
  143.5240  157.0980  133.3510 C   0  0  0  0  0  0  0  0  0  0  0  0
  143.4990  156.4900  132.1810 O   0  0  0  0  0  0  0  0  0  0  0  0
  143.0050  156.3060  134.3690 N   0  0  0  0  0  0  0  0  0  0  0  0
  141.6810  156.1140  134.8710 C   0  0  0  0  0  0  0  0  0  0  0  0
  140.7030  156.9930  134.1200 C   0  0  0  0  0  0  0  0  0  0  0  0
  139.9550  157.7480  134.7950 O   0  0  0  0  0  0  0  0  0  0  0  0
  140.6400  156.9590  132.7410 O   0  0  0  0  0  0  0  0  0  0  0  0
  144.0130  155.4780  135.1060 C   0  0  0  0  0  0  0  0  0  0  0  0
  144.6620  154.5350  134.2100 C   0  0  0  0  0  0  0  0  0  0  0  0
  144.2720  153.7830  133.1560 C   0  0  0  0  0  0  0  0  0  0  0  0
  145.1100  152.9800  132.5080 C   0  0  0  0  0  0  0  0  0  0  0  0
  146.4500  152.9580  132.9910 C   0  0  0  0  0  0  0  0  0  0  0  0
  146.4740  154.0970  134.3720 S   0  0  0  0  0  0  0  0  0  0  0  0
  145.4540  158.5350  133.2550 C   0  0  0  0  0  0  0  0  0  0  0  0
  146.5030  157.6350  133.1180 C   0  0  0  0  0  0  0  0  0  0  0  0
  148.4631  155.1541  133.5091 H   0  0  0  0  0  0  0  0  0  0  0  0
  147.6723  155.7530  132.0115 H   0  0  0  0  0  0  0  0  0  0  0  0
  149.4292  155.3792  132.0115 H   0  0  0  0  0  0  0  0  0  0  0  0
  149.8750  157.4250  133.1770 H   0  0  0  0  0  0  0  0  0  0  0  0
  149.1771  159.7586  133.3290 H   0  0  0  0  0  0  0  0  0  0  0  0
  147.3190  161.3689  133.5710 H   0  0  0  0  0  0  0  0  0  0  0  0
  144.5481  161.6400  133.6692 H   0  0  0  0  0  0  0  0  0  0  0  0
  140.3810  159.1270  133.1770 H   0  0  0  0  0  0  0  0  0  0  0  0
  141.3580  159.1470  131.6320 H   0  0  0  0  0  0  0  0  0  0  0  0
  141.3937  155.0599  134.7436 H   0  0  0  0  0  0  0  0  0  0  0  0
  141.6594  156.3836  135.9372 H   0  0  0  0  0  0  0  0  0  0  0  0
  141.3990  156.5410  132.2320 H   0  0  0  0  0  0  0  0  0  0  0  0
  144.7736  156.1413  135.5437 H   0  0  0  0  0  0  0  0  0  0  0  0
  143.4956  154.9141  135.8962 H   0  0  0  0  0  0  0  0  0  0  0  0
  143.2250  153.8377  132.8233 H   0  0  0  0  0  0  0  0  0  0  0  0
  144.7884  152.3698  131.6511 H   0  0  0  0  0  0  0  0  0  0  0  0
  147.2909  152.3670  132.5989 H   0  0  0  0  0  0  0  0  0  0  0  0
  146.2901  156.5638  132.9866 H   0  0  0  0  0  0  0  0  0  0  0  0
  1  2  1  0
  2  3  1  0
  3  4  2  0
  4  5  1  0
  5  6  2  0
  6  7  1  0
  7  8  2  0
  8  9  1  0
  9 10  1  0
  9 11  2  0
  8 12  1  0
 12 13  1  0
 13 14  2  0
 13 15  1  0
 15 16  1  0
 16 17  1  0
 17 18  2  0
 17 19  1  0
 15 20  1  0
 20 21  1  0
 21 22  2  0
 22 23  1  0
 23 24  2  0
 24 25  1  0
 12 26  1  0
 26 27  2  0
 27  3  1  0
 26  6  1  0
 25 21  1  0
  1 28  1  0
  1 29  1  0
  1 30  1  0
  2 31  1  0
  4 32  1  0
  5 33  1  0
  7 34  1  0
 10 35  1  0
 10 36  1  0
 16 37  1  0
 16 38  1  0
 19 39  1  0
 20 40  1  0
 20 41  1  0
 22 42  1  0
 23 43  1  0
 24 44  1  0
 27 45  1  0
M  END
>  <smiles>  (83) 
CNc1ccc2cc(C(N)=O)n(C(=O)N(CC(=O)O)Cc3cccs3)c2c1

>  <score_type>  (83) 
oracle

>  <origin>  (83) 
adg

>  <m_score__min__energy>  (83) 
-7.75

>  <m_primary>  (83) 
energy

$$$$
87:0
     RDKit          3D

 41 42  0  0  0  0  0  0  0  0999 V2000
  141.7150  154.3070  133.3690 C   0  0  0  0  0  0  0  0  0  0  0  0
  142.8220  153.5290  133.4300 C   0  0  0  0  0  0  0  0  0  0  0  0
  142.6000  152.1560  133.9140 C   0  0  0  0  0  0  0  0  0  0  0  0
  142.2380  151.2720  132.7470 C   0  0  0  0  0  0  0  0  0  0  0  0
  143.4890  150.4910  132.4280 C   0  0  0  0  0  0  0  0  0  0  0  0
  143.4580  149.2510  132.2150 O   0  0  0  0  0  0  0  0  0  0  0  0
  144.7240  151.1360  132.3630 O   0  0  0  0  0  0  0  0  0  0  0  0
  144.0540  154.0740  132.9710 N   0  0  0  0  0  0  0  0  0  0  0  0
  144.4210  153.6140  131.7180 O   0  0  0  0  0  0  0  0  0  0  0  0
  144.7890  155.0600  133.6580 C   0  0  0  0  0  0  0  0  0  0  0  0
  144.1790  155.5760  134.6610 O   0  0  0  0  0  0  0  0  0  0  0  0
  146.0750  155.5600  133.3950 N   0  0  0  0  0  0  0  0  0  0  0  0
  147.2210  154.9600  133.0390 C   0  0  0  0  0  0  0  0  0  0  0  0
  147.6470  153.5800  133.1330 C   0  0  0  0  0  0  0  0  0  0  0  0
  146.7450  152.5380  132.6880 N   0  0  0  0  0  0  0  0  0  0  0  0
  148.7450  153.1680  133.5700 O   0  0  0  0  0  0  0  0  0  0  0  0
  148.1740  155.9420  132.6790 C   0  0  0  0  0  0  0  0  0  0  0  0
  147.5780  157.1460  132.8330 C   0  0  0  0  0  0  0  0  0  0  0  0
  148.0880  158.4170  132.6130 C   0  0  0  0  0  0  0  0  0  0  0  0
  147.3050  159.5290  132.8330 C   0  0  0  0  0  0  0  0  0  0  0  0
  146.0200  159.3190  133.2710 C   0  0  0  0  0  0  0  0  0  0  0  0
  145.1710  160.5170  133.5100 C   0  0  0  0  0  0  0  0  0  0  0  0
  144.1060  160.0630  134.2860 F   0  0  0  0  0  0  0  0  0  0  0  0
  145.8480  161.5300  134.1520 F   0  0  0  0  0  0  0  0  0  0  0  0
  145.5150  158.0330  133.4900 C   0  0  0  0  0  0  0  0  0  0  0  0
  146.2980  156.9110  133.2700 C   0  0  0  0  0  0  0  0  0  0  0  0
  141.7921  155.3467  133.0182 H   0  0  0  0  0  0  0  0  0  0  0  0
  140.7388  153.8991  133.6702 H   0  0  0  0  0  0  0  0  0  0  0  0
  143.5181  151.7804  134.3893 H   0  0  0  0  0  0  0  0  0  0  0  0
  141.7821  152.1509  134.6496 H   0  0  0  0  0  0  0  0  0  0  0  0
  141.4190  150.5906  133.0207 H   0  0  0  0  0  0  0  0  0  0  0  0
  141.8924  151.8587  131.8831 H   0  0  0  0  0  0  0  0  0  0  0  0
  145.0550  151.5190  131.4820 H   0  0  0  0  0  0  0  0  0  0  0  0
  143.7870  152.8810  131.4670 H   0  0  0  0  0  0  0  0  0  0  0  0
  146.2770  152.6000  131.7530 H   0  0  0  0  0  0  0  0  0  0  0  0
  146.6030  151.7430  133.3560 H   0  0  0  0  0  0  0  0  0  0  0  0
  149.2041  155.7605  132.3385 H   0  0  0  0  0  0  0  0  0  0  0  0
  149.1231  158.5378  132.2610 H   0  0  0  0  0  0  0  0  0  0  0  0
  147.6932  160.5444  132.6647 H   0  0  0  0  0  0  0  0  0  0  0  0
  144.8412  160.9545  132.5561 H   0  0  0  0  0  0  0  0  0  0  0  0
  144.4802  157.9105  133.8424 H   0  0  0  0  0  0  0  0  0  0  0  0
  1  2  2  0
  2  3  1  0
  3  4  1  0
  4  5  1  0
  5  6  2  0
  5  7  1  0
  2  8  1  0
  8  9  1  0
  8 10  1  0
 10 11  2  0
 10 12  1  0
 12 13  1  0
 13 14  1  0
 14 15  1  0
 14 16  2  0
 13 17  2  0
 17 18  1  0
 18 19  2  0
 19 20  1  0
 20 21  2  0
 21 22  1  0
 22 23  1  0
 22 24  1  0
 21 25  1  0
 25 26  2  0
 26 12  1  0
 26 18  1  0
  1 27  1  0
  1 28  1  0
  3 29  1  0
  3 30  1  0
  4 31  1  0
  4 32  1  0
  7 33  1  0
  9 34  1  0
 15 35  1  0
 15 36  1  0
 17 37  1  0
 19 38  1  0
 20 39  1  0
 22 40  1  0
 25 41  1  0
M  END
>  <smiles>  (84) 
C=C(CCC(=O)O)N(O)C(=O)n1c(C(N)=O)cc2ccc(C(F)F)cc21

>  <score_type>  (84) 
oracle

>  <origin>  (84) 
adg

>  <m_score__min__energy>  (84) 
-7.2699999999999996

>  <m_primary>  (84) 
energy

$$$$
88:0
     RDKit          3D

 41 42  0  0  0  0  0  0  0  0999 V2000
  141.5770  158.6880  134.6780 C   0  0  0  0  0  0  0  0  0  0  0  0
  142.9360  159.1510  134.2750 C   0  0  0  0  0  0  0  0  0  0  0  0
  143.1500  160.5000  134.1110 C   0  0  0  0  0  0  0  0  0  0  0  0
  144.4070  160.9220  133.7390 C   0  0  0  0  0  0  0  0  0  0  0  0
  145.4090  159.9910  133.5430 C   0  0  0  0  0  0  0  0  0  0  0  0
  146.7050  160.1880  133.1780 C   0  0  0  0  0  0  0  0  0  0  0  0
  147.2740  158.9280  133.1240 C   0  0  0  0  0  0  0  0  0  0  0  0
  148.6640  158.7870  132.6440 C   0  0  0  0  0  0  0  0  0  0  0  0
  149.2450  157.4940  132.4570 N   0  0  0  0  0  0  0  0  0  0  0  0
  149.4000  159.7640  132.3780 O   0  0  0  0  0  0  0  0  0  0  0  0
  146.4150  157.9600  133.4370 N   0  0  0  0  0  0  0  0  0  0  0  0
  146.5210  156.6060  133.7350 C   0  0  0  0  0  0  0  0  0  0  0  0
  147.7230  156.2540  134.1710 O   0  0  0  0  0  0  0  0  0  0  0  0
  145.6840  155.4950  133.6860 N   0  0  0  0  0  0  0  0  0  0  0  0
  145.0030  155.2310  135.0190 C   0  0  0  0  0  0  0  0  0  0  0  0
  145.4360  154.4880  132.7320 C   0  0  0  0  0  0  0  0  0  0  0  0
  146.3220  153.2450  132.9960 C   0  0  0  0  0  0  0  0  0  0  0  0
  147.7250  153.6850  133.2410 C   0  0  0  0  0  0  0  0  0  0  0  0
  148.3230  153.2570  134.2710 O   0  0  0  0  0  0  0  0  0  0  0  0
  148.3050  154.5590  132.3010 N   0  0  0  0  0  0  0  0  0  0  0  0
  149.5740  155.0320  132.4100 O   0  0  0  0  0  0  0  0  0  0  0  0
  145.2370  158.6430  133.6950 C   0  0  0  0  0  0  0  0  0  0  0  0
  143.9690  158.2290  134.0690 C   0  0  0  0  0  0  0  0  0  0  0  0
  141.5081  158.6645  135.7756 H   0  0  0  0  0  0  0  0  0  0  0  0
  140.8205  159.3791  134.2778 H   0  0  0  0  0  0  0  0  0  0  0  0
  141.3998  157.6788  134.2778 H   0  0  0  0  0  0  0  0  0  0  0  0
  142.3374  161.2235  134.2729 H   0  0  0  0  0  0  0  0  0  0  0  0
  144.6121  161.9936  133.5988 H   0  0  0  0  0  0  0  0  0  0  0  0
  147.1978  161.1491  132.9693 H   0  0  0  0  0  0  0  0  0  0  0  0
  149.3000  157.0370  131.5030 H   0  0  0  0  0  0  0  0  0  0  0  0
  149.6090  157.0340  133.3240 H   0  0  0  0  0  0  0  0  0  0  0  0
  145.6868  155.4961  135.8389 H   0  0  0  0  0  0  0  0  0  0  0  0
  144.0901  155.8404  135.0914 H   0  0  0  0  0  0  0  0  0  0  0  0
  144.7393  154.1655  135.0914 H   0  0  0  0  0  0  0  0  0  0  0  0
  144.3775  154.1937  132.7861 H   0  0  0  0  0  0  0  0  0  0  0  0
  145.6746  154.8837  131.7337 H   0  0  0  0  0  0  0  0  0  0  0  0
  145.9462  152.7062  133.8783 H   0  0  0  0  0  0  0  0  0  0  0  0
  146.2917  152.5777  132.1220 H   0  0  0  0  0  0  0  0  0  0  0  0
  147.7610  154.8750  131.4750 H   0  0  0  0  0  0  0  0  0  0  0  0
  149.6080  155.4950  133.2920 H   0  0  0  0  0  0  0  0  0  0  0  0
  143.7702  157.1559  134.2066 H   0  0  0  0  0  0  0  0  0  0  0  0
  1  2  1  0
  2  3  2  0
  3  4  1  0
  4  5  2  0
  5  6  1  0
  6  7  2  0
  7  8  1  0
  8  9  1  0
  8 10  2  0
  7 11  1  0
 11 12  1  0
 12 13  2  0
 12 14  1  0
 14 15  1  0
 14 16  1  0
 16 17  1  0
 17 18  1  0
 18 19  2  0
 18 20  1  0
 20 21  1  0
 11 22  1  0
 22 23  2  0
 23  2  1  0
 22  5  1  0
  1 24  1  0
  1 25  1  0
  1 26  1  0
  3 27  1  0
  4 28  1  0
  6 29  1  0
  9 30  1  0
  9 31  1  0
 15 32  1  0
 15 33  1  0
 15 34  1  0
 16 35  1  0
 16 36  1  0
 17 37  1  0
 17 38  1  0
 20 39  1  0
 21 40  1  0
 23 41  1  0
M  END
>  <smiles>  (85) 
Cc1ccc2cc(C(N)=O)n(C(=O)N(C)CCC(=O)NO)c2c1

>  <score_type>  (85) 
oracle

>  <origin>  (85) 
adg

>  <m_score__min__energy>  (85) 
-7.4199999999999999

>  <m_primary>  (85) 
energy

$$$$
89:0
     RDKit          3D

 41 42  0  0  1  0  0  0  0  0999 V2000
  144.2700  154.0860  135.0810 C   0  0  0  0  0  0  0  0  0  0  0  0
  144.7050  155.0640  134.0020 C   0  0  0  0  0  0  0  0  0  0  0  0
  143.9390  155.0930  132.8060 C   0  0  0  0  0  0  0  0  0  0  0  0
  143.5620  156.2500  132.3930 O   0  0  0  0  0  0  0  0  0  0  0  0
  145.7830  155.8080  134.3030 C   0  0  0  0  0  0  0  0  0  0  0  0
  146.2670  156.7560  133.3510 C   0  0  0  0  0  0  0  0  0  0  0  0
  146.7820  156.2610  132.2990 O   0  0  0  0  0  0  0  0  0  0  0  0
  146.2690  158.1670  133.3910 N   0  0  0  0  0  0  0  0  0  0  0  0
  147.3730  158.9250  133.1510 C   0  0  0  0  0  0  0  0  0  0  0  0
  148.7490  158.6090  132.8630 C   0  0  0  0  0  0  0  0  0  0  0  0
  149.1200  157.2320  132.5300 N   0  0  0  0  0  0  0  0  0  0  0  0
  149.7340  159.3750  132.8530 O   0  0  0  0  0  0  0  0  0  0  0  0
  146.9620  160.2700  133.2530 C   0  0  0  0  0  0  0  0  0  0  0  0
  145.6360  160.3150  133.5510 C   0  0  0  0  0  0  0  0  0  0  0  0
  144.8020  161.3930  133.7420 C   0  0  0  0  0  0  0  0  0  0  0  0
  143.4690  161.2030  134.0350 C   0  0  0  0  0  0  0  0  0  0  0  0
  143.0190  159.9190  134.1240 C   0  0  0  0  0  0  0  0  0  0  0  0
  141.6000  159.6840  134.4340 C   0  0  0  0  0  0  0  0  0  0  0  0
  140.6820  159.8300  133.2380 C   0  0  0  0  0  0  0  0  0  0  0  0
  140.4430  158.4660  132.6590 C   0  0  0  0  0  0  0  0  0  0  0  0
  141.5870  157.7360  132.2310 N   0  0  0  0  0  0  0  0  0  0  0  0
  139.2980  157.9850  132.5560 O   0  0  0  0  0  0  0  0  0  0  0  0
  143.8810  158.8340  133.9250 C   0  0  0  0  0  0  0  0  0  0  0  0
  145.2150  159.0010  133.6340 C   0  0  0  0  0  0  0  0  0  0  0  0
  144.4643  154.5228  136.0717 H   0  0  0  0  0  0  0  0  0  0  0  0
  143.1948  153.8787  134.9761 H   0  0  0  0  0  0  0  0  0  0  0  0
  144.8361  153.1487  134.9761 H   0  0  0  0  0  0  0  0  0  0  0  0
  143.6818  154.1725  132.2615 H   0  0  0  0  0  0  0  0  0  0  0  0
  146.2875  155.6879  135.2731 H   0  0  0  0  0  0  0  0  0  0  0  0
  149.9720  156.8040  132.9580 H   0  0  0  0  0  0  0  0  0  0  0  0
  148.5160  156.6920  131.8570 H   0  0  0  0  0  0  0  0  0  0  0  0
  147.6125  161.1460  133.1133 H   0  0  0  0  0  0  0  0  0  0  0  0
  145.2026  162.4142  133.6601 H   0  0  0  0  0  0  0  0  0  0  0  0
  142.7925  162.0562  134.1914 H   0  0  0  0  0  0  0  0  0  0  0  0
  141.4956  158.6627  134.8290 H   0  0  0  0  0  0  0  0  0  0  0  0
  141.2999  160.4499  135.1643 H   0  0  0  0  0  0  0  0  0  0  0  0
  139.7260  160.2726  133.5546 H   0  0  0  0  0  0  0  0  0  0  0  0
  141.1419  160.4865  132.4847 H   0  0  0  0  0  0  0  0  0  0  0  0
  141.4790  156.7060  132.0080 H   0  0  0  0  0  0  0  0  0  0  0  0
  142.5160  158.1660  132.1280 H   0  0  0  0  0  0  0  0  0  0  0  0
  143.4780  157.8136  134.0040 H   0  0  0  0  0  0  0  0  0  0  0  0
  1  2  1  0
  2  3  1  0
  3  4  2  0
  2  5  2  0
  5  6  1  0
  6  7  2  0
  6  8  1  0
  8  9  1  0
  9 10  1  0
 10 11  1  0
 10 12  2  0
  9 13  2  0
 13 14  1  0
 14 15  2  0
 15 16  1  0
 16 17  2  0
 17 18  1  0
 18 19  1  0
 19 20  1  0
 20 21  1  0
 20 22  2  0
 17 23  1  0
 23 24  2  0
 24  8  1  0
 24 14  1  0
  1 25  1  0
  1 26  1  0
  1 27  1  0
  3 28  1  0
  5 29  1  0
 11 30  1  0
 11 31  1  0
 13 32  1  0
 15 33  1  0
 16 34  1  0
 18 35  1  0
 18 36  1  0
 19 37  1  0
 19 38  1  0
 21 39  1  0
 21 40  1  0
 23 41  1  0
M  END
>  <smiles>  (86) 
CC(C=O)=CC(=O)n1c(C(N)=O)cc2ccc(CCC(N)=O)cc21

>  <score_type>  (86) 
oracle

>  <origin>  (86) 
adg

>  <m_score__min__energy>  (86) 
-8.5700000000000003

>  <m_primary>  (86) 
energy

$$$$
90:0
     RDKit          3D

 47 48  0  0  0  0  0  0  0  0999 V2000
  146.3400  152.9200  132.7940 C   0  0  0  0  0  0  0  0  0  0  0  0
  147.1270  153.3570  133.9180 N   0  0  0  0  0  0  0  0  0  0  0  0
  148.5530  152.9290  133.8730 C   0  0  0  0  0  0  0  0  0  0  0  0
  149.0920  153.0890  132.4750 C   0  0  0  0  0  0  0  0  0  0  0  0
  148.9520  154.3680  131.9800 O   0  0  0  0  0  0  0  0  0  0  0  0
  146.7260  154.1160  135.0190 C   0  0  0  0  0  0  0  0  0  0  0  0
  147.2780  153.7330  136.1570 O   0  0  0  0  0  0  0  0  0  0  0  0
  145.8330  155.2330  135.1720 C   0  0  0  0  0  0  0  0  0  0  0  0
  145.1770  155.7760  133.9620 N   0  0  0  0  0  0  0  0  0  0  0  0
  143.8290  155.3370  133.7710 C   0  0  0  0  0  0  0  0  0  0  0  0
  146.0040  156.5840  133.1720 C   0  0  0  0  0  0  0  0  0  0  0  0
  146.6110  155.8490  132.2600 O   0  0  0  0  0  0  0  0  0  0  0  0
  146.3100  157.9340  133.1250 N   0  0  0  0  0  0  0  0  0  0  0  0
  147.4580  158.6150  133.0300 C   0  0  0  0  0  0  0  0  0  0  0  0
  148.7790  158.1830  132.5830 C   0  0  0  0  0  0  0  0  0  0  0  0
  149.0770  156.7690  132.5100 N   0  0  0  0  0  0  0  0  0  0  0  0
  149.7100  158.9370  132.2410 O   0  0  0  0  0  0  0  0  0  0  0  0
  147.2480  159.9880  133.2530 C   0  0  0  0  0  0  0  0  0  0  0  0
  145.9330  160.1340  133.4800 C   0  0  0  0  0  0  0  0  0  0  0  0
  145.2040  161.2900  133.7540 C   0  0  0  0  0  0  0  0  0  0  0  0
  143.8460  161.2270  133.9610 C   0  0  0  0  0  0  0  0  0  0  0  0
  143.2500  159.9960  133.8890 C   0  0  0  0  0  0  0  0  0  0  0  0
  141.7790  159.9210  134.1130 C   0  0  0  0  0  0  0  0  0  0  0  0
  141.4410  160.1050  135.4210 F   0  0  0  0  0  0  0  0  0  0  0  0
  141.1420  160.8990  133.3630 F   0  0  0  0  0  0  0  0  0  0  0  0
  141.3340  158.6990  133.6580 F   0  0  0  0  0  0  0  0  0  0  0  0
  143.9890  158.8430  133.6140 C   0  0  0  0  0  0  0  0  0  0  0  0
  145.3600  158.8920  133.4020 C   0  0  0  0  0  0  0  0  0  0  0  0
  145.4319  152.4158  133.1561 H   0  0  0  0  0  0  0  0  0  0  0  0
  146.0575  153.7904  132.1837 H   0  0  0  0  0  0  0  0  0  0  0  0
  146.9295  152.2200  132.1837 H   0  0  0  0  0  0  0  0  0  0  0  0
  149.1421  153.5494  134.5644 H   0  0  0  0  0  0  0  0  0  0  0  0
  148.6237  151.8722  134.1699 H   0  0  0  0  0  0  0  0  0  0  0  0
  150.1616  152.8323  132.4816 H   0  0  0  0  0  0  0  0  0  0  0  0
  148.5097  152.4215  131.8228 H   0  0  0  0  0  0  0  0  0  0  0  0
  148.0880  154.4860  131.4820 H   0  0  0  0  0  0  0  0  0  0  0  0
  145.0358  154.9207  135.8626 H   0  0  0  0  0  0  0  0  0  0  0  0
  146.4790  156.0517  135.5218 H   0  0  0  0  0  0  0  0  0  0  0  0
  143.3518  155.1816  134.7498 H   0  0  0  0  0  0  0  0  0  0  0  0
  143.2712  156.0999  133.2081 H   0  0  0  0  0  0  0  0  0  0  0  0
  143.8274  154.3919  133.2081 H   0  0  0  0  0  0  0  0  0  0  0  0
  148.5530  156.1280  133.1760 H   0  0  0  0  0  0  0  0  0  0  0  0
  149.7730  156.3860  131.8390 H   0  0  0  0  0  0  0  0  0  0  0  0
  148.0087  160.7825  133.2433 H   0  0  0  0  0  0  0  0  0  0  0  0
  145.7192  162.2606  133.8051 H   0  0  0  0  0  0  0  0  0  0  0  0
  143.2597  162.1324  134.1766 H   0  0  0  0  0  0  0  0  0  0  0  0
  143.4723  157.8732  133.5642 H   0  0  0  0  0  0  0  0  0  0  0  0
  1  2  1  0
  2  3  1  0
  3  4  1  0
  4  5  1  0
  2  6  1  0
  6  7  2  0
  6  8  1  0
  8  9  1  0
  9 10  1  0
  9 11  1  0
 11 12  2  0
 11 13  1  0
 13 14  1  0
 14 15  1  0
 15 16  1  0
 15 17  2  0
 14 18  2  0
 18 19  1  0
 19 20  2  0
 20 21  1  0
 21 22  2  0
 22 23  1  0
 23 24  1  0
 23 25  1  0
 23 26  1  0
 22 27  1  0
 27 28  2  0
 28 13  1  0
 28 19  1  0
  1 29  1  0
  1 30  1  0
  1 31  1  0
  3 32  1  0
  3 33  1  0
  4 34  1  0
  4 35  1  0
  5 36  1  0
  8 37  1  0
  8 38  1  0
 10 39  1  0
 10 40  1  0
 10 41  1  0
 16 42  1  0
 16 43  1  0
 18 44  1  0
 20 45  1  0
 21 46  1  0
 27 47  1  0
M  END
>  <smiles>  (87) 
CN(CCO)C(=O)CN(C)C(=O)n1c(C(N)=O)cc2ccc(C(F)(F)F)cc21

>  <score_type>  (87) 
oracle

>  <origin>  (87) 
adg

>  <m_score__min__energy>  (87) 
-6.4800000000000004

>  <m_primary>  (87) 
energy

$$$$
91:0
     RDKit          3D

 37 38  0  0  0  0  0  0  0  0999 V2000
  148.9910  157.5330  132.3070 N   0  0  0  0  0  0  0  0  0  0  0  0
  148.2540  158.7820  132.4040 C   0  0  0  0  0  0  0  0  0  0  0  0
  148.8880  159.7750  131.9920 O   0  0  0  0  0  0  0  0  0  0  0  0
  146.9110  158.7610  132.9420 C   0  0  0  0  0  0  0  0  0  0  0  0
  146.0880  159.9010  132.7970 C   0  0  0  0  0  0  0  0  0  0  0  0
  144.8760  159.5950  133.3360 C   0  0  0  0  0  0  0  0  0  0  0  0
  143.7390  160.3630  133.4430 C   0  0  0  0  0  0  0  0  0  0  0  0
  142.6050  159.8550  134.0350 C   0  0  0  0  0  0  0  0  0  0  0  0
  142.6550  158.5730  134.5070 C   0  0  0  0  0  0  0  0  0  0  0  0
  141.4340  158.0190  135.1490 C   0  0  0  0  0  0  0  0  0  0  0  0
  140.4230  158.1090  134.2140 F   0  0  0  0  0  0  0  0  0  0  0  0
  141.0640  158.8070  136.2330 F   0  0  0  0  0  0  0  0  0  0  0  0
  143.8110  157.8040  134.3940 C   0  0  0  0  0  0  0  0  0  0  0  0
  144.9630  158.3030  133.7980 C   0  0  0  0  0  0  0  0  0  0  0  0
  146.2110  157.7920  133.5600 N   0  0  0  0  0  0  0  0  0  0  0  0
  146.5530  156.4860  133.8920 C   0  0  0  0  0  0  0  0  0  0  0  0
  146.6070  156.2230  135.1590 O   0  0  0  0  0  0  0  0  0  0  0  0
  146.8780  155.3360  133.0460 C   0  0  1  0  0  0  0  0  0  0  0  0
  147.0650  155.6320  131.6970 O   0  0  0  0  0  0  0  0  0  0  0  0
  148.2020  154.6800  133.4800 C   0  0  2  0  0  0  0  0  0  0  0  0
  149.2930  155.2120  132.8360 O   0  0  0  0  0  0  0  0  0  0  0  0
  148.0830  153.1990  133.1720 C   0  0  0  0  0  0  0  0  0  0  0  0
  148.4580  152.9520  131.8570 O   0  0  0  0  0  0  0  0  0  0  0  0
  149.6400  157.3600  133.0990 H   0  0  0  0  0  0  0  0  0  0  0  0
  148.8550  156.8890  131.4940 H   0  0  0  0  0  0  0  0  0  0  0  0
  146.3737  160.8574  132.3347 H   0  0  0  0  0  0  0  0  0  0  0  0
  143.7365  161.3912  133.0522 H   0  0  0  0  0  0  0  0  0  0  0  0
  141.6904  160.4595  134.1252 H   0  0  0  0  0  0  0  0  0  0  0  0
  141.6160  156.9882  135.4873 H   0  0  0  0  0  0  0  0  0  0  0  0
  143.8120  156.7763  134.7862 H   0  0  0  0  0  0  0  0  0  0  0  0
  145.9997  154.6853  133.1693 H   0  0  0  0  0  0  0  0  0  0  0  0
  147.7000  154.9950  131.3150 H   0  0  0  0  0  0  0  0  0  0  0  0
  148.3641  154.8632  134.5524 H   0  0  0  0  0  0  0  0  0  0  0  0
  149.2090  155.1110  131.8630 H   0  0  0  0  0  0  0  0  0  0  0  0
  148.7390  152.6328  133.8496 H   0  0  0  0  0  0  0  0  0  0  0  0
  147.0381  152.8853  133.3128 H   0  0  0  0  0  0  0  0  0  0  0  0
  148.4280  153.8060  131.3410 H   0  0  0  0  0  0  0  0  0  0  0  0
  1  2  1  0
  2  3  2  0
  2  4  1  0
  4  5  2  0
  5  6  1  0
  6  7  2  0
  7  8  1  0
  8  9  2  0
  9 10  1  0
 10 11  1  0
 10 12  1  0
  9 13  1  0
 13 14  2  0
 14 15  1  0
 15 16  1  0
 16 17  2  0
 16 18  1  0
 18 19  1  0
 18 20  1  0
 20 21  1  0
 20 22  1  0
 22 23  1  0
 15  4  1  0
 14  6  1  0
  1 24  1  0
  1 25  1  0
  5 26  1  0
  7 27  1  0
  8 28  1  0
 10 29  1  0
 13 30  1  0
 18 31  1  6
 19 32  1  0
 20 33  1  1
 21 34  1  0
 22 35  1  0
 22 36  1  0
 23 37  1  0
M  END
>  <smiles>  (88) 
NC(=O)c1cc2ccc(C(F)F)cc2n1C(=O)[C@@H](O)[C@H](O)CO

>  <score_type>  (88) 
oracle

>  <origin>  (88) 
adg

>  <m_score__min__energy>  (88) 
-6.1100000000000003

>  <m_primary>  (88) 
energy

$$$$
93:0
     RDKit          3D

 53 55  0  0  1  0  0  0  0  0999 V2000
  149.6380  150.7390  131.2020 C   0  0  0  0  0  0  0  0  0  0  0  0
  149.8250  151.5040  132.4740 C   0  0  0  0  0  0  0  0  0  0  0  0
  148.6220  152.1130  132.9840 N   0  0  0  0  0  0  0  0  0  0  0  0
  148.5000  153.5280  132.9110 C   0  0  0  0  0  0  0  0  0  0  0  0
  149.3860  154.2760  132.4260 O   0  0  0  0  0  0  0  0  0  0  0  0
  147.3330  154.0880  133.4090 O   0  0  0  0  0  0  0  0  0  0  0  0
  146.2230  154.4340  132.6100 C   0  0  2  0  0  0  0  0  0  0  0  0
  145.4280  155.3970  133.2920 O   0  0  0  0  0  0  0  0  0  0  0  0
  145.9610  156.4090  134.0550 C   0  0  0  0  0  0  0  0  0  0  0  0
  146.4560  156.0270  135.1760 O   0  0  0  0  0  0  0  0  0  0  0  0
  146.0010  157.7810  133.7070 N   0  0  0  0  0  0  0  0  0  0  0  0
  147.0590  158.4570  133.2440 C   0  0  0  0  0  0  0  0  0  0  0  0
  148.4180  158.0440  132.9640 C   0  0  0  0  0  0  0  0  0  0  0  0
  148.6980  156.6550  132.6820 N   0  0  0  0  0  0  0  0  0  0  0  0
  149.4240  158.7890  132.9390 O   0  0  0  0  0  0  0  0  0  0  0  0
  146.6240  159.7620  133.0450 C   0  0  0  0  0  0  0  0  0  0  0  0
  145.3180  159.8670  133.3860 C   0  0  0  0  0  0  0  0  0  0  0  0
  144.4560  160.9300  133.3660 C   0  0  0  0  0  0  0  0  0  0  0  0
  143.1530  160.7400  133.7790 C   0  0  0  0  0  0  0  0  0  0  0  0
  142.6860  159.4940  134.2160 C   0  0  0  0  0  0  0  0  0  0  0  0
  141.3310  159.3120  134.6250 N   0  0  0  0  0  0  0  0  0  0  0  0
  140.2620  158.9950  133.6770 C   0  0  0  0  0  0  0  0  0  0  0  0
  139.6160  157.7060  134.1930 C   0  0  0  0  0  0  0  0  0  0  0  0
  139.1050  157.9480  135.4530 O   0  0  0  0  0  0  0  0  0  0  0  0
  140.1180  158.1870  136.3810 C   0  0  0  0  0  0  0  0  0  0  0  0
  140.9000  159.4440  136.0090 C   0  0  0  0  0  0  0  0  0  0  0  0
  143.6140  158.4770  134.2050 C   0  0  0  0  0  0  0  0  0  0  0  0
  144.9210  158.6150  133.8050 C   0  0  0  0  0  0  0  0  0  0  0  0
  145.3320  153.2210  132.5270 C   0  0  0  0  0  0  0  0  0  0  0  0
  144.1620  153.3260  132.0260 O   0  0  0  0  0  0  0  0  0  0  0  0
  145.7520  151.9770  132.9850 O   0  0  0  0  0  0  0  0  0  0  0  0
  149.3828  149.6950  131.4362 H   0  0  0  0  0  0  0  0  0  0  0  0
  148.8244  151.1930  130.6173 H   0  0  0  0  0  0  0  0  0  0  0  0
  150.5693  150.7665  130.6173 H   0  0  0  0  0  0  0  0  0  0  0  0
  150.2114  150.8129  133.2376 H   0  0  0  0  0  0  0  0  0  0  0  0
  150.5213  152.3249  132.2476 H   0  0  0  0  0  0  0  0  0  0  0  0
  147.8360  151.5430  133.4070 H   0  0  0  0  0  0  0  0  0  0  0  0
  146.5798  154.8008  131.6363 H   0  0  0  0  0  0  0  0  0  0  0  0
  148.4390  155.9780  133.4460 H   0  0  0  0  0  0  0  0  0  0  0  0
  149.1270  156.3640  131.7810 H   0  0  0  0  0  0  0  0  0  0  0  0
  147.2473  160.5858  132.6671 H   0  0  0  0  0  0  0  0  0  0  0  0
  144.7962  161.9194  133.0263 H   0  0  0  0  0  0  0  0  0  0  0  0
  142.4596  161.5938  133.7645 H   0  0  0  0  0  0  0  0  0  0  0  0
  139.5225  159.8088  133.6472 H   0  0  0  0  0  0  0  0  0  0  0  0
  140.6501  158.8726  132.6550 H   0  0  0  0  0  0  0  0  0  0  0  0
  138.8050  157.4001  133.5157 H   0  0  0  0  0  0  0  0  0  0  0  0
  140.3635  156.9002  134.2369 H   0  0  0  0  0  0  0  0  0  0  0  0
  139.6716  158.3203  137.3775 H   0  0  0  0  0  0  0  0  0  0  0  0
  140.8060  157.3287  136.3847 H   0  0  0  0  0  0  0  0  0  0  0  0
  140.2565  160.3296  136.1168 H   0  0  0  0  0  0  0  0  0  0  0  0
  141.7706  159.5625  136.6709 H   0  0  0  0  0  0  0  0  0  0  0  0
  143.2852  157.4824  134.5407 H   0  0  0  0  0  0  0  0  0  0  0  0
  146.4550  151.8530  133.6920 H   0  0  0  0  0  0  0  0  0  0  0  0
  1  2  1  0
  2  3  1  0
  3  4  1  0
  4  5  2  0
  4  6  1  0
  6  7  1  0
  7  8  1  0
  8  9  1  0
  9 10  2  0
  9 11  1  0
 11 12  1  0
 12 13  1  0
 13 14  1  0
 13 15  2  0
 12 16  2  0
 16 17  1  0
 17 18  2  0
 18 19  1  0
 19 20  2  0
 20 21  1  0
 21 22  1  0
 22 23  1  0
 23 24  1  0
 24 25  1  0
 25 26  1  0
 20 27  1  0
 27 28  2  0
  7 29  1  0
 29 30  2  0
 29 31  1  0
 28 11  1  0
 28 17  1  0
 26 21  1  0
  1 32  1  0
  1 33  1  0
  1 34  1  0
  2 35  1  0
  2 36  1  0
  3 37  1  0
  7 38  1  6
 14 39  1  0
 14 40  1  0
 16 41  1  0
 18 42  1  0
 19 43  1  0
 22 44  1  0
 22 45  1  0
 23 46  1  0
 23 47  1  0
 25 48  1  0
 25 49  1  0
 26 50  1  0
 26 51  1  0
 27 52  1  0
 31 53  1  0
M  END
>  <smiles>  (89) 
CCNC(=O)OC(OC(=O)n1c(C(N)=O)cc2ccc(N3CCOCC3)cc21)C(=O)O

>  <score_type>  (89) 
oracle

>  <origin>  (89) 
adg

>  <m_score__min__energy>  (89) 
-8.7699999999999996

>  <m_primary>  (89) 
energy

$$$$
94:0
     RDKit          3D

 41 42  0  0  0  0  0  0  0  0999 V2000
  149.5870  161.8460  130.3680 C   0  0  0  0  0  0  0  0  0  0  0  0
  149.7050  160.5330  130.4090 C   0  0  0  0  0  0  0  0  0  0  0  0
  150.6630  159.8570  129.7230 F   0  0  0  0  0  0  0  0  0  0  0  0
  148.7360  159.7960  131.2460 C   0  0  0  0  0  0  0  0  0  0  0  0
  147.5180  160.1160  131.1180 O   0  0  0  0  0  0  0  0  0  0  0  0
  149.1740  158.8140  132.1170 O   0  0  0  0  0  0  0  0  0  0  0  0
  148.5210  158.6370  133.3200 C   0  0  0  0  0  0  0  0  0  0  0  0
  149.1930  158.9900  134.3520 O   0  0  0  0  0  0  0  0  0  0  0  0
  147.2150  158.1130  133.4730 N   0  0  0  0  0  0  0  0  0  0  0  0
  146.0640  158.7990  133.6250 C   0  0  0  0  0  0  0  0  0  0  0  0
  145.8210  160.2150  133.6760 C   0  0  0  0  0  0  0  0  0  0  0  0
  146.9710  161.0980  133.7370 N   0  0  0  0  0  0  0  0  0  0  0  0
  144.7260  160.7930  133.6730 O   0  0  0  0  0  0  0  0  0  0  0  0
  145.0580  157.8390  133.7340 C   0  0  0  0  0  0  0  0  0  0  0  0
  145.5980  156.5790  133.6480 C   0  0  0  0  0  0  0  0  0  0  0  0
  145.0150  155.3250  133.7020 C   0  0  0  0  0  0  0  0  0  0  0  0
  145.8090  154.2030  133.5870 C   0  0  0  0  0  0  0  0  0  0  0  0
  147.1670  154.3610  133.4220 C   0  0  0  0  0  0  0  0  0  0  0  0
  148.0150  153.2120  133.3000 N   0  0  0  0  0  0  0  0  0  0  0  0
  149.2690  153.2390  132.5830 C   0  0  0  0  0  0  0  0  0  0  0  0
  149.6590  151.8720  132.0660 C   0  0  0  0  0  0  0  0  0  0  0  0
  149.1540  150.7620  132.9410 C   0  0  0  0  0  0  0  0  0  0  0  0
  147.8220  150.5210  132.5630 O   0  0  0  0  0  0  0  0  0  0  0  0
  147.7280  155.6370  133.3730 C   0  0  0  0  0  0  0  0  0  0  0  0
  146.9540  156.7730  133.4850 C   0  0  0  0  0  0  0  0  0  0  0  0
  148.7930  162.3451  130.9428 H   0  0  0  0  0  0  0  0  0  0  0  0
  150.2826  162.4420  129.7590 H   0  0  0  0  0  0  0  0  0  0  0  0
  147.8030  160.9240  133.1030 H   0  0  0  0  0  0  0  0  0  0  0  0
  146.9610  161.8900  134.4040 H   0  0  0  0  0  0  0  0  0  0  0  0
  143.9887  158.0588  133.8691 H   0  0  0  0  0  0  0  0  0  0  0  0
  143.9278  155.2239  133.8355 H   0  0  0  0  0  0  0  0  0  0  0  0
  145.3644  153.1976  133.6265 H   0  0  0  0  0  0  0  0  0  0  0  0
  147.7310  152.3230  133.7380 H   0  0  0  0  0  0  0  0  0  0  0  0
  149.1750  153.9272  131.7300 H   0  0  0  0  0  0  0  0  0  0  0  0
  150.0509  153.5726  133.2810 H   0  0  0  0  0  0  0  0  0  0  0  0
  149.2408  151.7439  131.0567 H   0  0  0  0  0  0  0  0  0  0  0  0
  150.7577  151.8182  132.0579 H   0  0  0  0  0  0  0  0  0  0  0  0
  149.7599  149.8562  132.7912 H   0  0  0  0  0  0  0  0  0  0  0  0
  149.2191  151.0367  134.0041 H   0  0  0  0  0  0  0  0  0  0  0  0
  147.2340  150.7150  133.3450 H   0  0  0  0  0  0  0  0  0  0  0  0
  148.8153  155.7399  133.2417 H   0  0  0  0  0  0  0  0  0  0  0  0
  1  2  2  0
  2  3  1  0
  2  4  1  0
  4  5  2  0
  4  6  1  0
  6  7  1  0
  7  8  2  0
  7  9  1  0
  9 10  1  0
 10 11  1  0
 11 12  1  0
 11 13  2  0
 10 14  2  0
 14 15  1  0
 15 16  2  0
 16 17  1  0
 17 18  2  0
 18 19  1  0
 19 20  1  0
 20 21  1  0
 21 22  1  0
 22 23  1  0
 18 24  1  0
 24 25  2  0
 25  9  1  0
 25 15  1  0
  1 26  1  0
  1 27  1  0
 12 28  1  0
 12 29  1  0
 14 30  1  0
 16 31  1  0
 17 32  1  0
 19 33  1  0
 20 34  1  0
 20 35  1  0
 21 36  1  0
 21 37  1  0
 22 38  1  0
 22 39  1  0
 23 40  1  0
 24 41  1  0
M  END
>  <smiles>  (90) 
C=C(F)C(=O)OC(=O)n1c(C(N)=O)cc2ccc(NCCCO)cc21

>  <score_type>  (90) 
oracle

>  <origin>  (90) 
adg

>  <m_score__min__energy>  (90) 
-7.4299999999999997

>  <m_primary>  (90) 
energy

$$$$
95:0
     RDKit          3D

 44 45  0  0  0  0  0  0  0  0999 V2000
  139.1080  156.2930  133.3110 C   0  0  0  0  0  0  0  0  0  0  0  0
  139.4760  157.7020  133.4610 N   0  0  0  0  0  0  0  0  0  0  0  0
  139.0400  158.7000  132.5070 C   0  0  0  0  0  0  0  0  0  0  0  0
  140.2310  159.2120  131.6890 C   0  0  0  0  0  0  0  0  0  0  0  0
  141.1990  159.7610  132.4950 O   0  0  0  0  0  0  0  0  0  0  0  0
  140.2660  158.1170  134.5440 C   0  0  0  0  0  0  0  0  0  0  0  0
  140.3890  159.3430  134.8720 O   0  0  0  0  0  0  0  0  0  0  0  0
  140.9790  157.2200  135.3480 O   0  0  0  0  0  0  0  0  0  0  0  0
  142.3770  157.3510  135.5370 C   0  0  0  0  0  0  0  0  0  0  0  0
  142.8010  158.5090  134.8250 O   0  0  0  0  0  0  0  0  0  0  0  0
  143.5930  158.2820  133.6990 C   0  0  0  0  0  0  0  0  0  0  0  0
  143.1210  157.4620  132.8730 O   0  0  0  0  0  0  0  0  0  0  0  0
  144.8320  158.9550  133.5480 N   0  0  0  0  0  0  0  0  0  0  0  0
  145.0330  160.2880  133.5700 C   0  0  0  0  0  0  0  0  0  0  0  0
  144.1250  161.3830  133.7410 C   0  0  0  0  0  0  0  0  0  0  0  0
  142.7010  161.1240  133.7010 N   0  0  0  0  0  0  0  0  0  0  0  0
  144.4240  162.5820  133.9270 O   0  0  0  0  0  0  0  0  0  0  0  0
  146.4090  160.4660  133.3810 C   0  0  0  0  0  0  0  0  0  0  0  0
  147.0280  159.2470  133.2460 C   0  0  0  0  0  0  0  0  0  0  0  0
  148.3520  158.9030  133.0450 C   0  0  0  0  0  0  0  0  0  0  0  0
  148.6980  157.5720  132.9450 C   0  0  0  0  0  0  0  0  0  0  0  0
  147.7190  156.6070  133.0470 C   0  0  0  0  0  0  0  0  0  0  0  0
  148.0730  155.1490  132.9420 C   0  0  0  0  0  0  0  0  0  0  0  0
  148.1750  154.6810  134.2390 F   0  0  0  0  0  0  0  0  0  0  0  0
  147.0650  154.4980  132.2360 F   0  0  0  0  0  0  0  0  0  0  0  0
  149.2850  155.0360  132.3140 F   0  0  0  0  0  0  0  0  0  0  0  0
  146.3980  156.9890  133.2500 C   0  0  0  0  0  0  0  0  0  0  0  0
  146.0170  158.3130  133.3550 C   0  0  0  0  0  0  0  0  0  0  0  0
  138.9890  155.8373  134.3051 H   0  0  0  0  0  0  0  0  0  0  0  0
  138.1603  156.2185  132.7576 H   0  0  0  0  0  0  0  0  0  0  0  0
  139.8983  155.7645  132.7576 H   0  0  0  0  0  0  0  0  0  0  0  0
  138.2989  158.2532  131.8279 H   0  0  0  0  0  0  0  0  0  0  0  0
  138.5919  159.5438  133.0522 H   0  0  0  0  0  0  0  0  0  0  0  0
  140.6671  158.3717  131.1289 H   0  0  0  0  0  0  0  0  0  0  0  0
  139.8684  159.9936  131.0052 H   0  0  0  0  0  0  0  0  0  0  0  0
  141.5530  159.0190  133.0630 H   0  0  0  0  0  0  0  0  0  0  0  0
  142.6016  157.4658  136.6077 H   0  0  0  0  0  0  0  0  0  0  0  0
  142.9021  156.4573  135.1688 H   0  0  0  0  0  0  0  0  0  0  0  0
  142.2800  160.3970  134.3060 H   0  0  0  0  0  0  0  0  0  0  0  0
  142.1260  161.6940  133.0460 H   0  0  0  0  0  0  0  0  0  0  0  0
  146.9197  161.4396  133.3458 H   0  0  0  0  0  0  0  0  0  0  0  0
  149.1224  159.6841  132.9656 H   0  0  0  0  0  0  0  0  0  0  0  0
  149.7471  157.2825  132.7851 H   0  0  0  0  0  0  0  0  0  0  0  0
  145.6273  156.2082  133.3300 H   0  0  0  0  0  0  0  0  0  0  0  0
  1  2  1  0
  2  3  1  0
  3  4  1  0
  4  5  1  0
  2  6  1  0
  6  7  2  0
  6  8  1  0
  8  9  1  0
  9 10  1  0
 10 11  1  0
 11 12  2  0
 11 13  1  0
 13 14  1  0
 14 15  1  0
 15 16  1  0
 15 17  2  0
 14 18  2  0
 18 19  1  0
 19 20  2  0
 20 21  1  0
 21 22  2  0
 22 23  1  0
 23 24  1  0
 23 25  1  0
 23 26  1  0
 22 27  1  0
 27 28  2  0
 28 13  1  0
 28 19  1  0
  1 29  1  0
  1 30  1  0
  1 31  1  0
  3 32  1  0
  3 33  1  0
  4 34  1  0
  4 35  1  0
  5 36  1  0
  9 37  1  0
  9 38  1  0
 16 39  1  0
 16 40  1  0
 18 41  1  0
 20 42  1  0
 21 43  1  0
 27 44  1  0
M  END
>  <smiles>  (91) 
CN(CCO)C(=O)OCOC(=O)n1c(C(N)=O)cc2ccc(C(F)(F)F)cc21

>  <score_type>  (91) 
oracle

>  <origin>  (91) 
adg

>  <m_score__min__energy>  (91) 
-5.8499999999999996

>  <m_primary>  (91) 
energy

$$$$
96:0
     RDKit          3D

 45 46  0  0  1  0  0  0  0  0999 V2000
  149.6020  150.8950  131.3000 C   0  0  0  0  0  0  0  0  0  0  0  0
  149.2960  151.4550  132.6180 N   0  0  0  0  0  0  0  0  0  0  0  0
  149.6840  150.7430  133.8040 C   0  0  0  0  0  0  0  0  0  0  0  0
  148.6190  152.7000  132.7010 C   0  0  0  0  0  0  0  0  0  0  0  0
  149.3340  153.8630  132.5530 C   0  0  0  0  0  0  0  0  0  0  0  0
  148.6700  155.0640  132.6350 C   0  0  0  0  0  0  0  0  0  0  0  0
  147.3160  155.0800  132.8590 C   0  0  0  0  0  0  0  0  0  0  0  0
  146.4360  156.1240  132.9790 C   0  0  0  0  0  0  0  0  0  0  0  0
  145.1470  155.6180  133.2040 C   0  0  0  0  0  0  0  0  0  0  0  0
  143.9980  156.4780  133.3740 C   0  0  0  0  0  0  0  0  0  0  0  0
  142.8090  156.2280  132.5880 N   0  0  0  0  0  0  0  0  0  0  0  0
  143.9090  157.4500  134.1540 O   0  0  0  0  0  0  0  0  0  0  0  0
  145.2640  154.2800  133.2180 N   0  0  0  0  0  0  0  0  0  0  0  0
  144.2240  153.3350  133.4110 C   0  0  0  0  0  0  0  0  0  0  0  0
  144.0880  152.2760  132.7490 O   0  0  0  0  0  0  0  0  0  0  0  0
  143.2520  153.5470  134.3900 O   0  0  0  0  0  0  0  0  0  0  0  0
  141.9070  153.1540  134.2340 C   0  0  2  0  0  0  0  0  0  0  0  0
  141.6850  151.6870  134.5300 C   0  0  0  0  0  0  0  0  0  0  0  0
  141.1740  150.7130  133.1240 P   0  0  0  0  0  0  0  0  0  0  0  0
  140.6640  149.3890  133.5730 O   0  0  0  0  0  0  0  0  0  0  0  0
  142.3490  150.6270  131.9180 O   0  0  0  0  0  0  0  0  0  0  0  0
  139.8480  151.5340  132.4180 O   0  0  0  0  0  0  0  0  0  0  0  0
  141.3260  153.6020  132.9600 C   0  0  0  0  0  0  0  0  0  0  0  0
  140.2190  154.2070  132.9080 O   0  0  0  0  0  0  0  0  0  0  0  0
  142.0350  153.3410  131.7950 O   0  0  0  0  0  0  0  0  0  0  0  0
  146.5520  153.9390  133.0130 C   0  0  0  0  0  0  0  0  0  0  0  0
  147.2470  152.7370  132.9260 C   0  0  0  0  0  0  0  0  0  0  0  0
  150.1262  149.9357  131.4219 H   0  0  0  0  0  0  0  0  0  0  0  0
  148.6667  150.7337  130.7440 H   0  0  0  0  0  0  0  0  0  0  0  0
  150.2430  151.5950  130.7440 H   0  0  0  0  0  0  0  0  0  0  0  0
  149.3734  151.3130  134.6920 H   0  0  0  0  0  0  0  0  0  0  0  0
  149.1992  149.7556  133.8140 H   0  0  0  0  0  0  0  0  0  0  0  0
  150.7765  150.6152  133.8140 H   0  0  0  0  0  0  0  0  0  0  0  0
  150.4186  153.8342  132.3721 H   0  0  0  0  0  0  0  0  0  0  0  0
  149.2219  156.0087  132.5215 H   0  0  0  0  0  0  0  0  0  0  0  0
  146.6989  157.1899  132.9098 H   0  0  0  0  0  0  0  0  0  0  0  0
  142.2950  155.3330  132.6530 H   0  0  0  0  0  0  0  0  0  0  0  0
  142.4430  156.9580  131.9310 H   0  0  0  0  0  0  0  0  0  0  0  0
  141.3372  153.6880  135.0087 H   0  0  0  0  0  0  0  0  0  0  0  0
  142.6272  151.2681  134.9131 H   0  0  0  0  0  0  0  0  0  0  0  0
  140.8623  151.6375  135.2585 H   0  0  0  0  0  0  0  0  0  0  0  0
  142.9720  151.3950  131.9490 H   0  0  0  0  0  0  0  0  0  0  0  0
  140.1640  152.2720  131.8380 H   0  0  0  0  0  0  0  0  0  0  0  0
  142.2690  152.3900  131.5090 H   0  0  0  0  0  0  0  0  0  0  0  0
  146.6970  151.7910  133.0381 H   0  0  0  0  0  0  0  0  0  0  0  0
  1  2  1  0
  2  3  1  0
  2  4  1  0
  4  5  2  0
  5  6  1  0
  6  7  2  0
  7  8  1  0
  8  9  2  0
  9 10  1  0
 10 11  1  0
 10 12  2  0
  9 13  1  0
 13 14  1  0
 14 15  2  0
 14 16  1  0
 16 17  1  0
 17 18  1  0
 18 19  1  0
 19 20  2  0
 19 21  1  0
 19 22  1  0
 17 23  1  0
 23 24  2  0
 23 25  1  0
 13 26  1  0
 26 27  2  0
 27  4  1  0
 26  7  1  0
  1 28  1  0
  1 29  1  0
  1 30  1  0
  3 31  1  0
  3 32  1  0
  3 33  1  0
  5 34  1  0
  6 35  1  0
  8 36  1  0
 11 37  1  0
 11 38  1  0
 17 39  1  1
 18 40  1  0
 18 41  1  0
 21 42  1  0
 22 43  1  0
 25 44  1  0
 27 45  1  0
M  END
>  <smiles>  (92) 
CN(C)c1ccc2cc(C(N)=O)n(C(=O)OC(CP(=O)(O)O)C(=O)O)c2c1

>  <score_type>  (92) 
oracle

>  <origin>  (92) 
adg

>  <m_score__min__energy>  (92) 
-6.79

>  <m_primary>  (92) 
energy

$$$$
97:0
     RDKit          3D

 55 58  0  0  0  0  0  0  0  0999 V2000
  149.4230  157.4950  132.2670 N   0  0  0  0  0  0  0  0  0  0  0  0
  148.7070  158.6730  132.5430 C   0  0  0  0  0  0  0  0  0  0  0  0
  149.3890  159.7460  132.4630 O   0  0  0  0  0  0  0  0  0  0  0  0
  147.3220  158.8070  132.8990 C   0  0  0  0  0  0  0  0  0  0  0  0
  146.7240  160.0680  133.0440 C   0  0  0  0  0  0  0  0  0  0  0  0
  145.4040  159.9010  133.3850 C   0  0  0  0  0  0  0  0  0  0  0  0
  144.4130  160.8180  133.6340 C   0  0  0  0  0  0  0  0  0  0  0  0
  143.1650  160.3580  133.9590 C   0  0  0  0  0  0  0  0  0  0  0  0
  142.8600  158.9880  134.0470 C   0  0  0  0  0  0  0  0  0  0  0  0
  141.5580  158.6030  134.4190 N   0  0  0  0  0  0  0  0  0  0  0  0
  140.3280  159.3110  134.2670 C   0  0  0  0  0  0  0  0  0  0  0  0
  139.7320  159.3790  132.9300 C   0  0  0  0  0  0  0  0  0  0  0  0
  139.5440  160.5270  132.1890 C   0  0  0  0  0  0  0  0  0  0  0  0
  138.9700  160.5780  130.9540 C   0  0  0  0  0  0  0  0  0  0  0  0
  138.5460  159.4180  130.4000 N   0  0  0  0  0  0  0  0  0  0  0  0
  138.6880  158.2430  131.0480 C   0  0  0  0  0  0  0  0  0  0  0  0
  139.2760  158.2050  132.3090 C   0  0  0  0  0  0  0  0  0  0  0  0
  141.4440  157.2500  135.0140 C   0  0  0  0  0  0  0  0  0  0  0  0
  141.5590  157.2450  136.4730 C   0  0  0  0  0  0  0  0  0  0  0  0
  141.6490  158.3470  137.2840 C   0  0  0  0  0  0  0  0  0  0  0  0
  141.7510  158.2400  138.6510 C   0  0  0  0  0  0  0  0  0  0  0  0
  141.7640  157.0280  139.2260 N   0  0  0  0  0  0  0  0  0  0  0  0
  141.6800  155.8900  138.4840 C   0  0  0  0  0  0  0  0  0  0  0  0
  141.5780  156.0050  137.1150 C   0  0  0  0  0  0  0  0  0  0  0  0
  143.9060  158.1430  133.7840 C   0  0  0  0  0  0  0  0  0  0  0  0
  145.1850  158.5470  133.4510 C   0  0  0  0  0  0  0  0  0  0  0  0
  146.3560  157.9100  133.1540 N   0  0  0  0  0  0  0  0  0  0  0  0
  146.4800  156.5010  133.1310 C   0  0  0  0  0  0  0  0  0  0  0  0
  145.5260  155.8270  132.6160 O   0  0  0  0  0  0  0  0  0  0  0  0
  147.5240  155.7590  133.6060 O   0  0  0  0  0  0  0  0  0  0  0  0
  147.7120  155.3320  134.9190 C   0  0  0  0  0  0  0  0  0  0  0  0
  146.9030  154.1470  135.2780 C   0  0  0  0  0  0  0  0  0  0  0  0
  146.9830  153.5560  136.3870 O   0  0  0  0  0  0  0  0  0  0  0  0
  146.0100  153.6740  134.3190 O   0  0  0  0  0  0  0  0  0  0  0  0
  149.9270  156.9690  133.0420 H   0  0  0  0  0  0  0  0  0  0  0  0
  149.4550  157.1540  131.2630 H   0  0  0  0  0  0  0  0  0  0  0  0
  147.2307  161.0346  132.9067 H   0  0  0  0  0  0  0  0  0  0  0  0
  144.6169  161.8973  133.5738 H   0  0  0  0  0  0  0  0  0  0  0  0
  142.3686  161.0898  134.1594 H   0  0  0  0  0  0  0  0  0  0  0  0
  139.5915  158.8323  134.9291 H   0  0  0  0  0  0  0  0  0  0  0  0
  140.5809  160.3542  134.5075 H   0  0  0  0  0  0  0  0  0  0  0  0
  139.8841  161.4759  132.6294 H   0  0  0  0  0  0  0  0  0  0  0  0
  138.8546  161.5342  130.4227 H   0  0  0  0  0  0  0  0  0  0  0  0
  138.3379  157.3121  130.5781 H   0  0  0  0  0  0  0  0  0  0  0  0
  139.3851  157.2407  132.8270 H   0  0  0  0  0  0  0  0  0  0  0  0
  140.4650  156.8300  134.7400 H   0  0  0  0  0  0  0  0  0  0  0  0
  142.2784  156.6509  134.6205 H   0  0  0  0  0  0  0  0  0  0  0  0
  141.6393  159.3475  136.8269 H   0  0  0  0  0  0  0  0  0  0  0  0
  141.8218  159.1456  139.2714 H   0  0  0  0  0  0  0  0  0  0  0  0
  141.6932  154.9014  138.9663 H   0  0  0  0  0  0  0  0  0  0  0  0
  141.5093  155.0903  136.5078 H   0  0  0  0  0  0  0  0  0  0  0  0
  143.7132  157.0616  133.8423 H   0  0  0  0  0  0  0  0  0  0  0  0
  148.7745  155.0817  135.0545 H   0  0  0  0  0  0  0  0  0  0  0  0
  147.3888  156.1539  135.5748 H   0  0  0  0  0  0  0  0  0  0  0  0
  145.9560  154.1140  133.3870 H   0  0  0  0  0  0  0  0  0  0  0  0
  1  2  1  0
  2  3  2  0
  2  4  1  0
  4  5  2  0
  5  6  1  0
  6  7  2  0
  7  8  1  0
  8  9  2  0
  9 10  1  0
 10 11  1  0
 11 12  1  0
 12 13  2  0
 13 14  1  0
 14 15  2  0
 15 16  1  0
 16 17  2  0
 10 18  1  0
 18 19  1  0
 19 20  2  0
 20 21  1  0
 21 22  2  0
 22 23  1  0
 23 24  2  0
  9 25  1  0
 25 26  2  0
 26 27  1  0
 27 28  1  0
 28 29  2  0
 28 30  1  0
 30 31  1  0
 31 32  1  0
 32 33  2  0
 32 34  1  0
 27  4  1  0
 26  6  1  0
 17 12  1  0
 24 19  1  0
  1 35  1  0
  1 36  1  0
  5 37  1  0
  7 38  1  0
  8 39  1  0
 11 40  1  0
 11 41  1  0
 13 42  1  0
 14 43  1  0
 16 44  1  0
 17 45  1  0
 18 46  1  0
 18 47  1  0
 20 48  1  0
 21 49  1  0
 23 50  1  0
 24 51  1  0
 25 52  1  0
 31 53  1  0
 31 54  1  0
 34 55  1  0
M  END
>  <smiles>  (93) 
NC(=O)c1cc2ccc(N(Cc3ccncc3)Cc3ccncc3)cc2n1C(=O)OCC(=O)O

>  <score_type>  (93) 
oracle

>  <origin>  (93) 
adg

>  <m_score__min__energy>  (93) 
-9.8499999999999996

>  <m_primary>  (93) 
energy

$$$$
98:0
     RDKit          3D

 35 36  0  0  0  0  0  0  0  0999 V2000
  138.7260  160.4940  130.8980 C   0  0  0  0  0  0  0  0  0  0  0  0
  138.0780  158.9120  131.5020 S   0  0  0  0  0  0  0  0  0  0  0  0
  138.8860  158.4010  133.0300 C   0  0  0  0  0  0  0  0  0  0  0  0
  140.3630  158.5630  132.9580 C   0  0  0  0  0  0  0  0  0  0  0  0
  140.9670  158.6050  131.8740 O   0  0  0  0  0  0  0  0  0  0  0  0
  141.1310  158.6770  134.2230 C   0  0  0  0  0  0  0  0  0  0  0  0
  142.5180  159.1660  133.9580 C   0  0  0  0  0  0  0  0  0  0  0  0
  142.7990  160.5180  134.0030 C   0  0  0  0  0  0  0  0  0  0  0  0
  144.0740  160.9160  133.7580 C   0  0  0  0  0  0  0  0  0  0  0  0
  145.0700  160.0090  133.4730 C   0  0  0  0  0  0  0  0  0  0  0  0
  146.4100  160.1560  133.1950 C   0  0  0  0  0  0  0  0  0  0  0  0
  146.9780  158.8930  132.9740 C   0  0  0  0  0  0  0  0  0  0  0  0
  148.3760  158.7410  132.6610 C   0  0  0  0  0  0  0  0  0  0  0  0
  149.1050  157.5440  132.5190 N   0  0  0  0  0  0  0  0  0  0  0  0
  149.0460  159.8070  132.4890 O   0  0  0  0  0  0  0  0  0  0  0  0
  145.9890  157.9950  133.1180 N   0  0  0  0  0  0  0  0  0  0  0  0
  146.0530  156.5950  132.9970 C   0  0  0  0  0  0  0  0  0  0  0  0
  145.4170  155.8600  133.8280 O   0  0  0  0  0  0  0  0  0  0  0  0
  146.7540  155.8890  132.0420 O   0  0  0  0  0  0  0  0  0  0  0  0
  144.8310  158.6550  133.4190 C   0  0  0  0  0  0  0  0  0  0  0  0
  143.5300  158.2550  133.6700 C   0  0  0  0  0  0  0  0  0  0  0  0
  138.9880  161.1336  131.7537 H   0  0  0  0  0  0  0  0  0  0  0  0
  139.6227  160.3136  130.2869 H   0  0  0  0  0  0  0  0  0  0  0  0
  137.9604  160.9945  130.2869 H   0  0  0  0  0  0  0  0  0  0  0  0
  138.5010  159.0143  133.8581 H   0  0  0  0  0  0  0  0  0  0  0  0
  138.6676  157.3350  133.1909 H   0  0  0  0  0  0  0  0  0  0  0  0
  140.6205  159.3849  134.8925 H   0  0  0  0  0  0  0  0  0  0  0  0
  141.1903  157.6833  134.6909 H   0  0  0  0  0  0  0  0  0  0  0  0
  142.0118  161.2517  134.2310 H   0  0  0  0  0  0  0  0  0  0  0  0
  144.3169  161.9884  133.7879 H   0  0  0  0  0  0  0  0  0  0  0  0
  146.9502  161.1133  133.1528 H   0  0  0  0  0  0  0  0  0  0  0  0
  149.6180  157.0830  133.3290 H   0  0  0  0  0  0  0  0  0  0  0  0
  149.1270  157.1190  131.5470 H   0  0  0  0  0  0  0  0  0  0  0  0
  146.5960  155.9800  131.0420 H   0  0  0  0  0  0  0  0  0  0  0  0
  143.2880  157.1823  133.6409 H   0  0  0  0  0  0  0  0  0  0  0  0
  1  2  1  0
  2  3  1  0
  3  4  1  0
  4  5  2  0
  4  6  1  0
  6  7  1  0
  7  8  2  0
  8  9  1  0
  9 10  2  0
 10 11  1  0
 11 12  2  0
 12 13  1  0
 13 14  1  0
 13 15  2  0
 12 16  1  0
 16 17  1  0
 17 18  2  0
 17 19  1  0
 16 20  1  0
 20 21  2  0
 21  7  1  0
 20 10  1  0
  1 22  1  0
  1 23  1  0
  1 24  1  0
  3 25  1  0
  3 26  1  0
  6 27  1  0
  6 28  1  0
  8 29  1  0
  9 30  1  0
 11 31  1  0
 14 32  1  0
 14 33  1  0
 19 34  1  0
 21 35  1  0
M  END
>  <smiles>  (94) 
CSCC(=O)Cc1ccc2cc(C(N)=O)n(C(=O)O)c2c1

>  <score_type>  (94) 
oracle

>  <origin>  (94) 
adg

>  <m_score__min__energy>  (94) 
-7.4199999999999999

>  <m_primary>  (94) 
energy

$$$$
99:0
     RDKit          3D

 45 46  0  0  1  0  0  0  0  0999 V2000
  139.4920  156.3480  133.0550 C   0  0  0  0  0  0  0  0  0  0  0  0
  139.6560  157.7600  133.1460 N   0  0  0  0  0  0  0  0  0  0  0  0
  138.8950  158.4450  132.1300 C   0  0  0  0  0  0  0  0  0  0  0  0
  139.3260  158.2290  134.4680 C   0  0  0  0  0  0  0  0  0  0  0  0
  140.5290  158.5440  135.2890 C   0  0  0  0  0  0  0  0  0  0  0  0
  141.7540  157.8990  134.9380 N   0  0  0  0  0  0  0  0  0  0  0  0
  142.9080  158.5250  134.4080 C   0  0  0  0  0  0  0  0  0  0  0  0
  142.9640  159.8870  134.2320 C   0  0  0  0  0  0  0  0  0  0  0  0
  144.1050  160.4810  133.7340 C   0  0  0  0  0  0  0  0  0  0  0  0
  145.1830  159.6740  133.4170 C   0  0  0  0  0  0  0  0  0  0  0  0
  146.4010  160.0240  132.9210 C   0  0  0  0  0  0  0  0  0  0  0  0
  147.1510  158.8380  132.7740 C   0  0  0  0  0  0  0  0  0  0  0  0
  148.5100  158.9080  132.2960 C   0  0  0  0  0  0  0  0  0  0  0  0
  149.3300  157.7090  132.3200 N   0  0  0  0  0  0  0  0  0  0  0  0
  149.1060  159.9100  131.8450 O   0  0  0  0  0  0  0  0  0  0  0  0
  146.3980  157.7930  133.1710 N   0  0  0  0  0  0  0  0  0  0  0  0
  146.6290  156.4080  133.1050 C   0  0  0  0  0  0  0  0  0  0  0  0
  147.3510  156.0130  132.1090 O   0  0  0  0  0  0  0  0  0  0  0  0
  146.1990  155.3570  133.9710 C   0  0  0  0  0  0  0  0  0  0  0  0
  146.7280  155.3230  135.2180 C   0  0  0  0  0  0  0  0  0  0  0  0
  146.3080  154.2490  136.1430 C   0  0  0  0  0  0  0  0  0  0  0  0
  147.0940  153.3470  136.5100 O   0  0  0  0  0  0  0  0  0  0  0  0
  145.0190  154.2170  136.6300 O   0  0  0  0  0  0  0  0  0  0  0  0
  145.1860  158.3100  133.5710 C   0  0  0  0  0  0  0  0  0  0  0  0
  144.0230  157.7590  134.0730 C   0  0  0  0  0  0  0  0  0  0  0  0
  139.4421  155.9187  134.0665 H   0  0  0  0  0  0  0  0  0  0  0  0
  138.5615  156.1211  132.5141 H   0  0  0  0  0  0  0  0  0  0  0  0
  140.3458  155.9138  132.5141 H   0  0  0  0  0  0  0  0  0  0  0  0
  138.1586  159.1078  132.6079 H   0  0  0  0  0  0  0  0  0  0  0  0
  139.5739  159.0423  131.5037 H   0  0  0  0  0  0  0  0  0  0  0  0
  138.3721  157.7072  131.5037 H   0  0  0  0  0  0  0  0  0  0  0  0
  138.7162  159.1398  134.3752 H   0  0  0  0  0  0  0  0  0  0  0  0
  138.7807  157.4213  134.9781 H   0  0  0  0  0  0  0  0  0  0  0  0
  140.6975  159.6291  135.2239 H   0  0  0  0  0  0  0  0  0  0  0  0
  140.2901  158.1645  136.2934 H   0  0  0  0  0  0  0  0  0  0  0  0
  141.7820  156.8420  135.0830 H   0  0  0  0  0  0  0  0  0  0  0  0
  142.0931  160.5075  134.4900 H   0  0  0  0  0  0  0  0  0  0  0  0
  144.1565  161.5706  133.5923 H   0  0  0  0  0  0  0  0  0  0  0  0
  146.7383  161.0428  132.6795 H   0  0  0  0  0  0  0  0  0  0  0  0
  149.2190  157.0900  131.4720 H   0  0  0  0  0  0  0  0  0  0  0  0
  149.9650  157.4940  133.1060 H   0  0  0  0  0  0  0  0  0  0  0  0
  145.4678  154.6053  133.6390 H   0  0  0  0  0  0  0  0  0  0  0  0
  147.4578  156.0819  135.5367 H   0  0  0  0  0  0  0  0  0  0  0  0
  144.6940  154.7810  137.3990 H   0  0  0  0  0  0  0  0  0  0  0  0
  143.9749  156.6692  134.2143 H   0  0  0  0  0  0  0  0  0  0  0  0
  1  2  1  0
  2  3  1  0
  2  4  1  0
  4  5  1  0
  5  6  1  0
  6  7  1  0
  7  8  2  0
  8  9  1  0
  9 10  2  0
 10 11  1  0
 11 12  2  0
 12 13  1  0
 13 14  1  0
 13 15  2  0
 12 16  1  0
 16 17  1  0
 17 18  2  0
 17 19  1  0
 19 20  2  0
 20 21  1  0
 21 22  2  0
 21 23  1  0
 16 24  1  0
 24 25  2  0
 25  7  1  0
 24 10  1  0
  1 26  1  0
  1 27  1  0
  1 28  1  0
  3 29  1  0
  3 30  1  0
  3 31  1  0
  4 32  1  0
  4 33  1  0
  5 34  1  0
  5 35  1  0
  6 36  1  0
  8 37  1  0
  9 38  1  0
 11 39  1  0
 14 40  1  0
 14 41  1  0
 19 42  1  0
 20 43  1  0
 23 44  1  0
 25 45  1  0
M  END
>  <smiles>  (95) 
CN(C)CCNc1ccc2cc(C(N)=O)n(C(=O)C=CC(=O)O)c2c1

>  <score_type>  (95) 
oracle

>  <origin>  (95) 
adg

>  <m_score__min__energy>  (95) 
-8.0099999999999998

>  <m_primary>  (95) 
energy

$$$$
