0:0
     RDKit          3D

 35 37  0  0  0  0  0  0  0  0999 V2000
  149.6090  161.8700  129.9910 C   0  0  0  0  0  0  0  0  0  0  0  0
  149.1870  160.7760  130.8550 N   0  0  0  0  0  0  0  0  0  0  0  0
  147.9160  160.4720  131.1740 C   0  0  0  0  0  0  0  0  0  0  0  0
  147.9370  159.4200  132.0750 C   0  0  0  0  0  0  0  0  0  0  0  0
  146.7760  158.7460  132.7100 C   0  0  0  0  0  0  0  0  0  0  0  0
  145.4760  159.3100  132.6110 C   0  0  0  0  0  0  0  0  0  0  0  0
  144.3680  158.6740  133.1970 C   0  0  0  0  0  0  0  0  0  0  0  0
  144.5850  157.4850  133.8840 C   0  0  0  0  0  0  0  0  0  0  0  0
  143.6870  156.6520  134.5100 C   0  0  0  0  0  0  0  0  0  0  0  0
  144.4520  155.6040  135.0150 C   0  0  0  0  0  0  0  0  0  0  0  0
  143.8870  154.5010  135.8200 C   0  0  0  0  0  0  0  0  0  0  0  0
  144.5780  153.9890  136.9600 N   0  0  0  0  0  0  0  0  0  0  0  0
  142.7510  154.0420  135.5290 O   0  0  0  0  0  0  0  0  0  0  0  0
  145.7670  155.7730  134.7020 N   0  0  0  0  0  0  0  0  0  0  0  0
  146.8480  154.8570  134.9450 C   0  0  0  0  0  0  0  0  0  0  0  0
  147.3750  154.2410  133.9770 O   0  0  0  0  0  0  0  0  0  0  0  0
  147.3040  154.6540  136.2540 O   0  0  0  0  0  0  0  0  0  0  0  0
  147.6320  153.4110  136.8100 C   0  0  0  0  0  0  0  0  0  0  0  0
  148.8030  152.9520  136.7460 O   0  0  0  0  0  0  0  0  0  0  0  0
  146.6440  152.6710  137.4420 O   0  0  0  0  0  0  0  0  0  0  0  0
  145.8320  156.9330  134.0100 C   0  0  0  0  0  0  0  0  0  0  0  0
  146.9510  157.5310  133.4170 C   0  0  0  0  0  0  0  0  0  0  0  0
  149.2860  159.1480  132.2620 C   0  0  0  0  0  0  0  0  0  0  0  0
  150.0240  159.9920  131.5140 N   0  0  0  0  0  0  0  0  0  0  0  0
  149.9366  162.7194  130.6084 H   0  0  0  0  0  0  0  0  0  0  0  0
  150.4425  161.5352  129.3560 H   0  0  0  0  0  0  0  0  0  0  0  0
  148.7666  162.1816  129.3560 H   0  0  0  0  0  0  0  0  0  0  0  0
  147.0161  160.9721  130.7866 H   0  0  0  0  0  0  0  0  0  0  0  0
  145.3347  160.2566  132.0688 H   0  0  0  0  0  0  0  0  0  0  0  0
  143.3590  159.1043  133.1145 H   0  0  0  0  0  0  0  0  0  0  0  0
  142.5983  156.7852  134.5936 H   0  0  0  0  0  0  0  0  0  0  0  0
  144.1830  153.1830  137.4930 H   0  0  0  0  0  0  0  0  0  0  0  0
  145.4330  154.4600  137.3290 H   0  0  0  0  0  0  0  0  0  0  0  0
  147.9450  157.0669  133.4985 H   0  0  0  0  0  0  0  0  0  0  0  0
  149.6900  158.3642  132.9195 H   0  0  0  0  0  0  0  0  0  0  0  0
  1  2  1  0
  2  3  1  0
  3  4  2  0
  4  5  1  0
  5  6  2  0
  6  7  1  0
  7  8  2  0
  8  9  1  0
  9 10  2  0
 10 11  1  0
 11 12  1  0
 11 13  2  0
 10 14  1  0
 14 15  1  0
 15 16  2  0
 15 17  1  0
 17 18  1  0
 18 19  2  0
 18 20  1  0
 14 21  1  0
 21 22  2  0
  4 23  1  0
 23 24  2  0
 24  2  1  0
 22  5  1  0
 21  8  1  0
  1 25  1  0
  1 26  1  0
  1 27  1  0
  3 28  1  0
  6 29  1  0
  7 30  1  0
  9 31  1  0
 12 32  1  0
 12 33  1  0
 22 34  1  0
 23 35  1  0
M  CHG  1  20  -1
M  END
>  <UniqueID>  (1) 
1

>  <SMILES>  (1) 
Cn1cc(-c2ccc3cc(C(N)=O)n(C(=O)OC(=O)[O-])c3c2)cn1

>  <Energy>  (1) 
109.10963650127829

>  <Genealogy>  (1) 
Cn1cc(-c2ccc3cc(C(N)=O)n(C(=O)OC(=O)[O-])c3c2)cn1 (protonated)
Cn1cc(-c2ccc3cc(C(N)=O)n(C(=O)OC(=O)[O-])c3c2)cn1 (3D coordinates assigned)
Cn1cc(-c2ccc3cc(C(N)=O)n(C(=O)OC(=O)[O-])c3c2)cn1 (optimized conformer: 109.10963650127829 kcal/mol)

>  <smiles>  (1) 
Cn1cc(-c2ccc3cc(C(N)=O)n(C(=O)OC(=O)O)c3c2)cn1

>  <score_type>  (1) 
oracle

>  <origin>  (1) 
adg

>  <m_score__min__energy>  (1) 
-7.5199999999999996

>  <m_primary>  (1) 
energy

$$$$
1:0
     RDKit          3D

 35 36  0  0  0  0  0  0  0  0999 V2000
  140.3330  156.6780  132.7680 N   0  0  0  0  0  0  0  0  0  0  0  0
  141.6340  156.4650  133.3190 C   0  0  0  0  0  0  0  0  0  0  0  0
  141.9700  155.3040  133.6700 O   0  0  0  0  0  0  0  0  0  0  0  0
  142.6100  157.5680  133.4360 C   0  0  0  0  0  0  0  0  0  0  0  0
  143.9760  157.4170  133.2100 C   0  0  0  0  0  0  0  0  0  0  0  0
  144.5190  158.6660  133.4150 C   0  0  0  0  0  0  0  0  0  0  0  0
  145.8440  159.0840  133.3660 C   0  0  0  0  0  0  0  0  0  0  0  0
  146.1260  160.4230  133.6880 C   0  0  0  0  0  0  0  0  0  0  0  0
  145.0850  161.3170  134.0470 C   0  0  0  0  0  0  0  0  0  0  0  0
  145.4060  162.7310  134.4560 C   0  0  0  0  0  0  0  0  0  0  0  0
  146.6300  163.0910  133.9260 F   0  0  0  0  0  0  0  0  0  0  0  0
  144.4390  163.6060  133.9890 F   0  0  0  0  0  0  0  0  0  0  0  0
  145.4610  162.8420  135.8340 F   0  0  0  0  0  0  0  0  0  0  0  0
  143.7530  160.8440  134.1140 C   0  0  0  0  0  0  0  0  0  0  0  0
  143.5000  159.5140  133.7600 C   0  0  0  0  0  0  0  0  0  0  0  0
  142.3200  158.8560  133.7710 N   0  0  0  0  0  0  0  0  0  0  0  0
  141.0550  159.3770  134.2110 C   0  0  0  0  0  0  0  0  0  0  0  0
  140.9630  159.9110  135.3480 O   0  0  0  0  0  0  0  0  0  0  0  0
  139.8600  159.2770  133.3580 C   0  0  0  0  0  0  0  0  0  0  0  0
  138.8300  158.6900  133.7850 O   0  0  0  0  0  0  0  0  0  0  0  0
  139.8710  159.8610  132.0510 N   0  0  0  0  0  0  0  0  0  0  0  0
  138.6910  160.4390  131.4160 C   0  0  0  0  0  0  0  0  0  0  0  0
  137.8330  159.3510  130.7710 C   0  0  0  0  0  0  0  0  0  0  0  0
  138.4080  158.0940  131.0000 O   0  0  0  0  0  0  0  0  0  0  0  0
  139.6400  155.8980  132.7480 H   0  0  0  0  0  0  0  0  0  0  0  0
  140.0870  157.5730  132.2900 H   0  0  0  0  0  0  0  0  0  0  0  0
  144.5078  156.4964  132.9279 H   0  0  0  0  0  0  0  0  0  0  0  0
  146.6476  158.3879  133.0837 H   0  0  0  0  0  0  0  0  0  0  0  0
  147.1656  160.7814  133.6613 H   0  0  0  0  0  0  0  0  0  0  0  0
  142.9359  161.5060  134.4367 H   0  0  0  0  0  0  0  0  0  0  0  0
  138.0944  160.9656  132.1755 H   0  0  0  0  0  0  0  0  0  0  0  0
  139.0193  161.1389  130.6334 H   0  0  0  0  0  0  0  0  0  0  0  0
  136.8235  159.3756  131.2073 H   0  0  0  0  0  0  0  0  0  0  0  0
  137.7733  159.5307  129.6874 H   0  0  0  0  0  0  0  0  0  0  0  0
  138.6300  158.0670  131.9670 H   0  0  0  0  0  0  0  0  0  0  0  0
  1  2  1  0
  2  3  2  0
  2  4  1  0
  4  5  2  0
  5  6  1  0
  6  7  2  0
  7  8  1  0
  8  9  2  0
  9 10  1  0
 10 11  1  0
 10 12  1  0
 10 13  1  0
  9 14  1  0
 14 15  2  0
 15 16  1  0
 16 17  1  0
 17 18  2  0
 17 19  1  0
 19 20  2  0
 19 21  1  0
 21 22  1  0
 22 23  1  0
 23 24  1  0
 16  4  1  0
 15  6  1  0
  1 25  1  0
  1 26  1  0
  5 27  1  0
  7 28  1  0
  8 29  1  0
 14 30  1  0
 22 31  1  0
 22 32  1  0
 23 33  1  0
 23 34  1  0
 24 35  1  0
M  CHG  1  21  -1
M  END
>  <UniqueID>  (2) 
2

>  <SMILES>  (2) 
NC(=O)c1cc2ccc(C(F)(F)F)cc2n1C(=O)C(=O)[N-]CCO

>  <Energy>  (2) 
70.85695300751637

>  <Genealogy>  (2) 
NC(=O)c1cc2ccc(C(F)(F)F)cc2n1C(=O)C(=O)[N-]CCO (protonated)
NC(=O)c1cc2ccc(C(F)(F)F)cc2n1C(=O)C(=O)[N-]CCO (3D coordinates assigned)
NC(=O)c1cc2ccc(C(F)(F)F)cc2n1C(=O)C(=O)[N-]CCO (optimized conformer: 70.85695300751637 kcal/mol)

>  <smiles>  (2) 
NC(=O)c1cc2ccc(C(F)(F)F)cc2n1C(=O)C(=O)NCCO

>  <score_type>  (2) 
oracle

>  <origin>  (2) 
adg

>  <m_score__min__energy>  (2) 
-5.9800000000000004

>  <m_primary>  (2) 
energy

$$$$
2:0
     RDKit          3D

 30 31  0  0  0  0  0  0  0  0999 V2000
  141.2600  157.2810  132.9330 N   0  0  0  0  0  0  0  0  0  0  0  0
  141.9860  157.8210  134.0330 C   0  0  0  0  0  0  0  0  0  0  0  0
  141.4160  157.9390  135.1500 O   0  0  0  0  0  0  0  0  0  0  0  0
  143.3770  158.2930  133.8670 C   0  0  0  0  0  0  0  0  0  0  0  0
  143.7600  159.6220  134.0390 C   0  0  0  0  0  0  0  0  0  0  0  0
  145.0950  159.6620  133.7070 C   0  0  0  0  0  0  0  0  0  0  0  0
  145.9870  160.7320  133.7140 C   0  0  0  0  0  0  0  0  0  0  0  0
  147.3210  160.4770  133.3550 C   0  0  0  0  0  0  0  0  0  0  0  0
  147.7360  159.1710  132.9960 C   0  0  0  0  0  0  0  0  0  0  0  0
  149.1750  158.9040  132.6630 C   0  0  0  0  0  0  0  0  0  0  0  0
  149.5590  159.5920  131.0660 Cl  0  0  0  0  0  0  0  0  0  0  0  0
  146.8070  158.1080  133.0140 C   0  0  0  0  0  0  0  0  0  0  0  0
  145.4790  158.3930  133.3580 C   0  0  0  0  0  0  0  0  0  0  0  0
  144.4370  157.5390  133.4560 N   0  0  0  0  0  0  0  0  0  0  0  0
  144.4810  156.1190  133.2460 C   0  0  0  0  0  0  0  0  0  0  0  0
  143.5420  155.5450  132.6320 O   0  0  0  0  0  0  0  0  0  0  0  0
  145.5570  155.3780  133.7480 O   0  0  0  0  0  0  0  0  0  0  0  0
  145.4270  154.4270  134.8020 C   0  0  0  0  0  0  0  0  0  0  0  0
  146.6480  154.4350  135.6640 C   0  0  0  0  0  0  0  0  0  0  0  0
  147.4480  155.4060  135.6150 O   0  0  0  0  0  0  0  0  0  0  0  0
  146.9200  153.3600  136.5000 O   0  0  0  0  0  0  0  0  0  0  0  0
  141.7270  156.6660  132.2290 H   0  0  0  0  0  0  0  0  0  0  0  0
  143.1294  160.4605  134.3697 H   0  0  0  0  0  0  0  0  0  0  0  0
  145.6574  161.7440  133.9917 H   0  0  0  0  0  0  0  0  0  0  0  0
  148.0509  161.3000  133.3526 H   0  0  0  0  0  0  0  0  0  0  0  0
  149.8188  159.3674  133.4251 H   0  0  0  0  0  0  0  0  0  0  0  0
  149.3489  157.8180  132.6432 H   0  0  0  0  0  0  0  0  0  0  0  0
  147.1177  157.0827  132.7645 H   0  0  0  0  0  0  0  0  0  0  0  0
  144.5494  154.6820  135.4142 H   0  0  0  0  0  0  0  0  0  0  0  0
  145.3048  153.4248  134.3655 H   0  0  0  0  0  0  0  0  0  0  0  0
  1  2  1  0
  2  3  2  0
  2  4  1  0
  4  5  2  0
  5  6  1  0
  6  7  2  0
  7  8  1  0
  8  9  2  0
  9 10  1  0
 10 11  1  0
  9 12  1  0
 12 13  2  0
 13 14  1  0
 14 15  1  0
 15 16  2  0
 15 17  1  0
 17 18  1  0
 18 19  1  0
 19 20  2  0
 19 21  1  0
 14  4  1  0
 13  6  1  0
  1 22  1  0
  5 23  1  0
  7 24  1  0
  8 25  1  0
 10 26  1  0
 10 27  1  0
 12 28  1  0
 18 29  1  0
 18 30  1  0
M  CHG  2   1  -1  21  -1
M  END
>  <UniqueID>  (3) 
3

>  <SMILES>  (3) 
[NH-]C(=O)c1cc2ccc(CCl)cc2n1C(=O)OCC(=O)[O-]

>  <Energy>  (3) 
66.31913254655566

>  <Genealogy>  (3) 
[NH-]C(=O)c1cc2ccc(CCl)cc2n1C(=O)OCC(=O)[O-] (protonated)
[NH-]C(=O)c1cc2ccc(CCl)cc2n1C(=O)OCC(=O)[O-] (3D coordinates assigned)
[NH-]C(=O)c1cc2ccc(CCl)cc2n1C(=O)OCC(=O)[O-] (optimized conformer: 66.31913254655566 kcal/mol)

>  <smiles>  (3) 
NC(=O)c1cc2ccc(CCl)cc2n1C(=O)OCC(=O)O

>  <score_type>  (3) 
oracle

>  <origin>  (3) 
adg

>  <m_score__min__energy>  (3) 
-6.0300000000000002

>  <m_primary>  (3) 
energy

$$$$
3:0
     RDKit          3D

 55 56  0  0  0  0  0  0  0  0999 V2000
  141.4560  156.4180  136.3200 C   0  0  0  0  0  0  0  0  0  0  0  0
  141.5180  156.9770  135.1150 C   0  0  0  0  0  0  0  0  0  0  0  0
  141.4210  156.1580  133.9840 O   0  0  0  0  0  0  0  0  0  0  0  0
  140.3440  156.2220  133.0540 C   0  0  0  0  0  0  0  0  0  0  0  0
  140.2070  157.5580  132.5830 O   0  0  0  0  0  0  0  0  0  0  0  0
  138.9870  158.2450  132.6160 C   0  0  0  0  0  0  0  0  0  0  0  0
  138.0950  157.9040  133.4420 O   0  0  0  0  0  0  0  0  0  0  0  0
  138.7140  159.3400  131.6050 C   0  0  0  0  0  0  0  0  0  0  0  0
  139.1180  160.7050  132.1960 C   0  0  0  0  0  0  0  0  0  0  0  0
  139.5430  159.0620  130.3400 C   0  0  0  0  0  0  0  0  0  0  0  0
  137.2150  159.3820  131.2350 C   0  0  0  0  0  0  0  0  0  0  0  0
  141.7240  158.3980  134.9900 N   0  0  0  0  0  0  0  0  0  0  0  0
  140.6130  159.2960  135.3210 C   0  0  0  0  0  0  0  0  0  0  0  0
  142.9830  158.9130  134.4850 C   0  0  0  0  0  0  0  0  0  0  0  0
  143.2060  160.3140  134.3700 C   0  0  0  0  0  0  0  0  0  0  0  0
  144.4200  160.8140  133.8740 C   0  0  0  0  0  0  0  0  0  0  0  0
  145.3920  159.9020  133.4820 C   0  0  0  0  0  0  0  0  0  0  0  0
  146.6570  160.1160  132.9830 C   0  0  0  0  0  0  0  0  0  0  0  0
  147.1830  158.8470  132.7620 C   0  0  0  0  0  0  0  0  0  0  0  0
  148.5100  158.6130  132.1560 C   0  0  0  0  0  0  0  0  0  0  0  0
  148.9640  157.2920  131.8610 N   0  0  0  0  0  0  0  0  0  0  0  0
  149.2300  159.5980  131.8420 O   0  0  0  0  0  0  0  0  0  0  0  0
  146.2900  157.8850  133.1240 N   0  0  0  0  0  0  0  0  0  0  0  0
  146.4880  156.4610  133.1230 C   0  0  0  0  0  0  0  0  0  0  0  0
  145.7320  155.7210  132.4360 O   0  0  0  0  0  0  0  0  0  0  0  0
  147.5170  155.9010  133.8870 O   0  0  0  0  0  0  0  0  0  0  0  0
  148.0910  154.6280  133.6080 C   0  0  0  0  0  0  0  0  0  0  0  0
  148.3160  154.4870  132.2320 O   0  0  0  0  0  0  0  0  0  0  0  0
  145.1960  158.5480  133.5610 C   0  0  0  0  0  0  0  0  0  0  0  0
  144.0100  158.0210  134.0850 C   0  0  0  0  0  0  0  0  0  0  0  0
  141.5302  157.0442  137.2213 H   0  0  0  0  0  0  0  0  0  0  0  0
  141.3305  155.3294  136.4155 H   0  0  0  0  0  0  0  0  0  0  0  0
  140.5509  155.5529  132.2058 H   0  0  0  0  0  0  0  0  0  0  0  0
  139.4123  155.9083  133.5475 H   0  0  0  0  0  0  0  0  0  0  0  0
  139.1012  160.6484  133.2944 H   0  0  0  0  0  0  0  0  0  0  0  0
  140.1317  160.9655  131.8577 H   0  0  0  0  0  0  0  0  0  0  0  0
  138.4093  161.4753  131.8577 H   0  0  0  0  0  0  0  0  0  0  0  0
  140.5495  158.7245  130.6281 H   0  0  0  0  0  0  0  0  0  0  0  0
  139.0507  158.2798  129.7435 H   0  0  0  0  0  0  0  0  0  0  0  0
  139.6218  159.9829  129.7435 H   0  0  0  0  0  0  0  0  0  0  0  0
  136.6108  159.3989  132.1541 H   0  0  0  0  0  0  0  0  0  0  0  0
  137.0085  160.2863  130.6437 H   0  0  0  0  0  0  0  0  0  0  0  0
  136.9582  158.4907  130.6437 H   0  0  0  0  0  0  0  0  0  0  0  0
  140.5173  159.3734  136.4141 H   0  0  0  0  0  0  0  0  0  0  0  0
  140.8088  160.2926  134.8986 H   0  0  0  0  0  0  0  0  0  0  0  0
  139.6796  158.8956  134.8986 H   0  0  0  0  0  0  0  0  0  0  0  0
  142.4151  161.0153  134.6744 H   0  0  0  0  0  0  0  0  0  0  0  0
  144.5968  161.8970  133.7978 H   0  0  0  0  0  0  0  0  0  0  0  0
  147.1471  161.0833  132.7985 H   0  0  0  0  0  0  0  0  0  0  0  0
  149.9220  157.1420  131.4720 H   0  0  0  0  0  0  0  0  0  0  0  0
  148.3270  156.4690  131.9470 H   0  0  0  0  0  0  0  0  0  0  0  0
  149.0475  154.5360  134.1434 H   0  0  0  0  0  0  0  0  0  0  0  0
  147.3965  153.8419  133.9394 H   0  0  0  0  0  0  0  0  0  0  0  0
  147.4210  154.5040  131.8030 H   0  0  0  0  0  0  0  0  0  0  0  0
  143.8769  156.9336  134.1848 H   0  0  0  0  0  0  0  0  0  0  0  0
  1  2  2  0
  2  3  1  0
  3  4  1  0
  4  5  1  0
  5  6  1  0
  6  7  2  0
  6  8  1  0
  8  9  1  0
  8 10  1  0
  8 11  1  0
  2 12  1  0
 12 13  1  0
 12 14  1  0
 14 15  2  0
 15 16  1  0
 16 17  2  0
 17 18  1  0
 18 19  2  0
 19 20  1  0
 20 21  1  0
 20 22  2  0
 19 23  1  0
 23 24  1  0
 24 25  2  0
 24 26  1  0
 26 27  1  0
 27 28  1  0
 23 29  1  0
 29 30  2  0
 30 14  1  0
 29 17  1  0
  1 31  1  0
  1 32  1  0
  4 33  1  0
  4 34  1  0
  9 35  1  0
  9 36  1  0
  9 37  1  0
 10 38  1  0
 10 39  1  0
 10 40  1  0
 11 41  1  0
 11 42  1  0
 11 43  1  0
 13 44  1  0
 13 45  1  0
 13 46  1  0
 15 47  1  0
 16 48  1  0
 18 49  1  0
 21 50  1  0
 21 51  1  0
 27 52  1  0
 27 53  1  0
 28 54  1  0
 30 55  1  0
M  END
>  <UniqueID>  (4) 
4

>  <SMILES>  (4) 
C=C(OCOC(=O)C(C)(C)C)N(C)c1ccc2cc(C(N)=O)n(C(=O)OCO)c2c1

>  <Energy>  (4) 
89.661051670869

>  <Genealogy>  (4) 
C=C(OCOC(=O)C(C)(C)C)N(C)c1ccc2cc(C(N)=O)n(C(=O)OCO)c2c1 (3D coordinates assigned)
C=C(OCOC(=O)C(C)(C)C)N(C)c1ccc2cc(C(N)=O)n(C(=O)OCO)c2c1 (optimized conformer: 89.661051670869 kcal/mol)

>  <smiles>  (4) 
C=C(OCOC(=O)C(C)(C)C)N(C)c1ccc2cc(C(N)=O)n(C(=O)OCO)c2c1

>  <score_type>  (4) 
oracle

>  <origin>  (4) 
adg

>  <m_score__min__energy>  (4) 
-7.2800000000000002

>  <m_primary>  (4) 
energy

$$$$
5:0
     RDKit          3D

 41 42  0  0  0  0  0  0  0  0999 V2000
  148.4370  156.2140  132.9830 C   0  0  0  0  0  0  0  0  0  0  0  0
  148.5530  157.6320  132.6220 N   0  0  0  0  0  0  0  0  0  0  0  0
  149.7480  158.0850  131.8970 C   0  0  0  0  0  0  0  0  0  0  0  0
  147.5050  158.5730  132.9760 C   0  0  0  0  0  0  0  0  0  0  0  0
  147.8100  159.9380  133.2430 C   0  0  0  0  0  0  0  0  0  0  0  0
  146.8010  160.8560  133.5780 C   0  0  0  0  0  0  0  0  0  0  0  0
  145.4940  160.3920  133.6510 C   0  0  0  0  0  0  0  0  0  0  0  0
  144.3280  161.0690  133.9300 C   0  0  0  0  0  0  0  0  0  0  0  0
  143.3190  160.1100  133.8600 C   0  0  0  0  0  0  0  0  0  0  0  0
  141.9050  160.3950  134.1810 C   0  0  0  0  0  0  0  0  0  0  0  0
  141.2450  159.7220  135.2490 N   0  0  0  0  0  0  0  0  0  0  0  0
  141.2840  161.2810  133.5340 O   0  0  0  0  0  0  0  0  0  0  0  0
  143.8400  158.8920  133.5380 N   0  0  0  0  0  0  0  0  0  0  0  0
  143.1370  157.6630  133.2980 C   0  0  0  0  0  0  0  0  0  0  0  0
  143.2310  157.0960  132.1760 O   0  0  0  0  0  0  0  0  0  0  0  0
  142.3760  157.0960  134.3290 O   0  0  0  0  0  0  0  0  0  0  0  0
  141.0070  156.8060  134.2570 C   0  0  0  0  0  0  0  0  0  0  0  0
  140.2900  156.8060  135.2970 O   0  0  0  0  0  0  0  0  0  0  0  0
  140.4130  156.5590  132.9660 N   0  0  0  0  0  0  0  0  0  0  0  0
  139.5590  157.6930  132.5810 C   0  0  0  0  0  0  0  0  0  0  0  0
  139.6470  155.3020  132.9740 C   0  0  0  0  0  0  0  0  0  0  0  0
  145.1730  159.0820  133.4180 C   0  0  0  0  0  0  0  0  0  0  0  0
  146.1530  158.1500  133.0610 C   0  0  0  0  0  0  0  0  0  0  0  0
  148.4288  156.1140  134.0784 H   0  0  0  0  0  0  0  0  0  0  0  0
  147.5025  155.8059  132.5706 H   0  0  0  0  0  0  0  0  0  0  0  0
  149.2928  155.6594  132.5706 H   0  0  0  0  0  0  0  0  0  0  0  0
  150.5247  158.3794  132.6181 H   0  0  0  0  0  0  0  0  0  0  0  0
  150.1253  157.2675  131.2651 H   0  0  0  0  0  0  0  0  0  0  0  0
  149.4886  158.9472  131.2651 H   0  0  0  0  0  0  0  0  0  0  0  0
  148.8541  160.2796  133.1859 H   0  0  0  0  0  0  0  0  0  0  0  0
  147.0390  161.9114  133.7767 H   0  0  0  0  0  0  0  0  0  0  0  0
  144.2165  162.1390  134.1593 H   0  0  0  0  0  0  0  0  0  0  0  0
  141.3510  158.6930  135.3830 H   0  0  0  0  0  0  0  0  0  0  0  0
  141.1780  156.4690  132.2560 H   0  0  0  0  0  0  0  0  0  0  0  0
  139.1828  158.1925  133.4859 H   0  0  0  0  0  0  0  0  0  0  0  0
  140.1452  158.4076  131.9845 H   0  0  0  0  0  0  0  0  0  0  0  0
  138.7103  157.3270  131.9845 H   0  0  0  0  0  0  0  0  0  0  0  0
  139.4591  154.9937  134.0131 H   0  0  0  0  0  0  0  0  0  0  0  0
  138.6878  155.4539  132.4575 H   0  0  0  0  0  0  0  0  0  0  0  0
  140.2217  154.5191  132.4575 H   0  0  0  0  0  0  0  0  0  0  0  0
  145.8801  157.1056  132.8495 H   0  0  0  0  0  0  0  0  0  0  0  0
  1  2  1  0
  2  3  1  0
  2  4  1  0
  4  5  2  0
  5  6  1  0
  6  7  2  0
  7  8  1  0
  8  9  2  0
  9 10  1  0
 10 11  1  0
 10 12  2  0
  9 13  1  0
 13 14  1  0
 14 15  2  0
 14 16  1  0
 16 17  1  0
 17 18  2  0
 17 19  1  0
 19 20  1  0
 19 21  1  0
 13 22  1  0
 22 23  2  0
 23  4  1  0
 22  7  1  0
  1 24  1  0
  1 25  1  0
  1 26  1  0
  3 27  1  0
  3 28  1  0
  3 29  1  0
  5 30  1  0
  6 31  1  0
  8 32  1  0
 11 33  1  0
 19 34  1  0
 20 35  1  0
 20 36  1  0
 20 37  1  0
 21 38  1  0
 21 39  1  0
 21 40  1  0
 23 41  1  0
M  CHG  2  11  -1  19   1
M  END
>  <UniqueID>  (5) 
5

>  <SMILES>  (5) 
CN(C)c1ccc2cc(C([NH-])=O)n(C(=O)OC(=O)[NH+](C)C)c2c1

>  <Energy>  (5) 
82.30831707294338

>  <Genealogy>  (5) 
CN(C)c1ccc2cc(C([NH-])=O)n(C(=O)OC(=O)[NH+](C)C)c2c1 (protonated)
CN(C)c1ccc2cc(C([NH-])=O)n(C(=O)OC(=O)[NH+](C)C)c2c1 (3D coordinates assigned)
CN(C)c1ccc2cc(C([NH-])=O)n(C(=O)OC(=O)[NH+](C)C)c2c1 (optimized conformer: 82.30831707294338 kcal/mol)

>  <smiles>  (5) 
CN(C)C(=O)OC(=O)n1c(C(N)=O)cc2ccc(N(C)C)cc21

>  <score_type>  (5) 
oracle

>  <origin>  (5) 
adg

>  <m_score__min__energy>  (5) 
-6.1500000000000004

>  <m_primary>  (5) 
energy

$$$$
6:0
     RDKit          3D

 39 41  0  0  0  0  0  0  0  0999 V2000
  140.2650  157.8830  133.4900 C   0  0  0  0  0  0  0  0  0  0  0  0
  141.1550  158.3880  134.5420 N   0  0  0  0  0  0  0  0  0  0  0  0
  140.6790  158.3970  135.9310 C   0  0  0  0  0  0  0  0  0  0  0  0
  142.4810  158.8780  134.2150 C   0  0  0  0  0  0  0  0  0  0  0  0
  142.7350  160.2740  134.1060 C   0  0  0  0  0  0  0  0  0  0  0  0
  144.0160  160.7560  133.7880 C   0  0  0  0  0  0  0  0  0  0  0  0
  145.0340  159.8280  133.5980 C   0  0  0  0  0  0  0  0  0  0  0  0
  146.3510  160.0180  133.2450 C   0  0  0  0  0  0  0  0  0  0  0  0
  146.8990  158.7400  133.1730 C   0  0  0  0  0  0  0  0  0  0  0  0
  148.3110  158.4710  132.8310 C   0  0  0  0  0  0  0  0  0  0  0  0
  148.6670  157.4910  131.8550 N   0  0  0  0  0  0  0  0  0  0  0  0
  149.2230  159.0880  133.4440 O   0  0  0  0  0  0  0  0  0  0  0  0
  145.9600  157.7990  133.4670 N   0  0  0  0  0  0  0  0  0  0  0  0
  146.0980  156.3720  133.3730 C   0  0  0  0  0  0  0  0  0  0  0  0
  146.3130  155.8430  132.2490 O   0  0  0  0  0  0  0  0  0  0  0  0
  146.0170  155.5230  134.5740 C   0  0  0  0  0  0  0  0  0  0  0  0
  144.8640  155.0600  135.1780 C   0  0  0  0  0  0  0  0  0  0  0  0
  145.1840  154.3210  136.2170 O   0  0  0  0  0  0  0  0  0  0  0  0
  146.4940  154.2780  136.3160 C   0  0  0  0  0  0  0  0  0  0  0  0
  147.2080  153.5440  137.3650 C   0  0  0  0  0  0  0  0  0  0  0  0
  147.7040  152.4100  137.1280 O   0  0  0  0  0  0  0  0  0  0  0  0
  147.3400  154.1000  138.6310 O   0  0  0  0  0  0  0  0  0  0  0  0
  147.0750  155.0140  135.3010 C   0  0  0  0  0  0  0  0  0  0  0  0
  144.8210  158.4830  133.7170 C   0  0  0  0  0  0  0  0  0  0  0  0
  143.5500  157.9710  134.0000 C   0  0  0  0  0  0  0  0  0  0  0  0
  139.3961  157.3899  133.9503 H   0  0  0  0  0  0  0  0  0  0  0  0
  139.9227  158.7214  132.8656 H   0  0  0  0  0  0  0  0  0  0  0  0
  140.8092  157.1591  132.8656 H   0  0  0  0  0  0  0  0  0  0  0  0
  141.5410  158.3807  136.6141 H   0  0  0  0  0  0  0  0  0  0  0  0
  140.0867  159.3065  136.1097 H   0  0  0  0  0  0  0  0  0  0  0  0
  140.0527  157.5105  136.1097 H   0  0  0  0  0  0  0  0  0  0  0  0
  141.9148  160.9876  134.2735 H   0  0  0  0  0  0  0  0  0  0  0  0
  144.2078  161.8349  133.6922 H   0  0  0  0  0  0  0  0  0  0  0  0
  146.8612  160.9747  133.0595 H   0  0  0  0  0  0  0  0  0  0  0  0
  149.6680  157.3610  131.5870 H   0  0  0  0  0  0  0  0  0  0  0  0
  147.9610  156.8260  131.4720 H   0  0  0  0  0  0  0  0  0  0  0  0
  143.8390  155.2759  134.8422 H   0  0  0  0  0  0  0  0  0  0  0  0
  148.1486  155.1624  135.1127 H   0  0  0  0  0  0  0  0  0  0  0  0
  143.3829  156.8851  134.0547 H   0  0  0  0  0  0  0  0  0  0  0  0
  1  2  1  0
  2  3  1  0
  2  4  1  0
  4  5  2  0
  5  6  1  0
  6  7  2  0
  7  8  1  0
  8  9  2  0
  9 10  1  0
 10 11  1  0
 10 12  2  0
  9 13  1  0
 13 14  1  0
 14 15  2  0
 14 16  1  0
 16 17  2  0
 17 18  1  0
 18 19  1  0
 19 20  1  0
 20 21  2  0
 20 22  1  0
 19 23  2  0
 13 24  1  0
 24 25  2  0
 25  4  1  0
 24  7  1  0
 23 16  1  0
  1 26  1  0
  1 27  1  0
  1 28  1  0
  3 29  1  0
  3 30  1  0
  3 31  1  0
  5 32  1  0
  6 33  1  0
  8 34  1  0
 11 35  1  0
 11 36  1  0
 17 37  1  0
 23 38  1  0
 25 39  1  0
M  CHG  1  22  -1
M  END
>  <UniqueID>  (6) 
6

>  <SMILES>  (6) 
CN(C)c1ccc2cc(C(N)=O)n(C(=O)c3coc(C(=O)[O-])c3)c2c1

>  <Energy>  (6) 
107.47174628578225

>  <Genealogy>  (6) 
CN(C)c1ccc2cc(C(N)=O)n(C(=O)c3coc(C(=O)[O-])c3)c2c1 (protonated)
CN(C)c1ccc2cc(C(N)=O)n(C(=O)c3coc(C(=O)[O-])c3)c2c1 (3D coordinates assigned)
CN(C)c1ccc2cc(C(N)=O)n(C(=O)c3coc(C(=O)[O-])c3)c2c1 (optimized conformer: 107.47174628578225 kcal/mol)

>  <smiles>  (6) 
CN(C)c1ccc2cc(C(N)=O)n(C(=O)c3coc(C(=O)O)c3)c2c1

>  <score_type>  (6) 
oracle

>  <origin>  (6) 
adg

>  <m_score__min__energy>  (6) 
-8.1199999999999992

>  <m_primary>  (6) 
energy

$$$$
7:0
     RDKit          3D

 36 37  0  0  0  0  0  0  0  0999 V2000
  149.9470  159.4240  131.2110 C   0  0  0  0  0  0  0  0  0  0  0  0
  149.6630  158.7520  132.4320 O   0  0  0  0  0  0  0  0  0  0  0  0
  148.4030  158.7860  133.0350 C   0  0  0  0  0  0  0  0  0  0  0  0
  148.2290  158.2710  134.1740 O   0  0  0  0  0  0  0  0  0  0  0  0
  147.3470  159.4010  132.3520 O   0  0  0  0  0  0  0  0  0  0  0  0
  146.2740  160.0680  132.9580 C   0  0  0  0  0  0  0  0  0  0  0  0
  146.4770  160.9790  133.8070 O   0  0  0  0  0  0  0  0  0  0  0  0
  144.9720  159.6980  132.5980 O   0  0  0  0  0  0  0  0  0  0  0  0
  143.8740  159.6570  133.4690 C   0  0  0  0  0  0  0  0  0  0  0  0
  143.6670  160.5900  134.2920 O   0  0  0  0  0  0  0  0  0  0  0  0
  142.9930  158.5240  133.4400 N   0  0  0  0  0  0  0  0  0  0  0  0
  143.2970  157.2180  133.6930 C   0  0  0  0  0  0  0  0  0  0  0  0
  144.5830  156.7100  134.2150 C   0  0  0  0  0  0  0  0  0  0  0  0
  145.8200  157.1010  133.6270 N   0  0  0  0  0  0  0  0  0  0  0  0
  144.5920  155.9560  135.2240 O   0  0  0  0  0  0  0  0  0  0  0  0
  142.1870  156.4060  133.4700 C   0  0  0  0  0  0  0  0  0  0  0  0
  141.1820  157.2610  133.0790 C   0  0  0  0  0  0  0  0  0  0  0  0
  139.8660  156.9880  132.7140 C   0  0  0  0  0  0  0  0  0  0  0  0
  139.0550  158.0660  132.3200 C   0  0  0  0  0  0  0  0  0  0  0  0
  139.5700  159.3860  132.2980 C   0  0  0  0  0  0  0  0  0  0  0  0
  138.7070  160.5240  131.8300 C   0  0  0  0  0  0  0  0  0  0  0  0
  137.8740  160.0920  130.6660 C   0  0  0  0  0  0  0  0  0  0  0  0
  138.3440  160.1390  129.4990 O   0  0  0  0  0  0  0  0  0  0  0  0
  136.5960  159.5900  130.8730 O   0  0  0  0  0  0  0  0  0  0  0  0
  140.9140  159.6230  132.6630 C   0  0  0  0  0  0  0  0  0  0  0  0
  141.6930  158.5330  133.0700 C   0  0  0  0  0  0  0  0  0  0  0  0
  150.3668  160.4173  131.4282 H   0  0  0  0  0  0  0  0  0  0  0  0
  150.6742  158.8376  130.6303 H   0  0  0  0  0  0  0  0  0  0  0  0
  149.0196  159.5369  130.6303 H   0  0  0  0  0  0  0  0  0  0  0  0
  146.1160  158.1020  133.6140 H   0  0  0  0  0  0  0  0  0  0  0  0
  142.1267  155.3134  133.5826 H   0  0  0  0  0  0  0  0  0  0  0  0
  139.4736  155.9606  132.7335 H   0  0  0  0  0  0  0  0  0  0  0  0
  138.0108  157.8834  132.0260 H   0  0  0  0  0  0  0  0  0  0  0  0
  138.0477  160.8422  132.6510 H   0  0  0  0  0  0  0  0  0  0  0  0
  139.3508  161.3608  131.5212 H   0  0  0  0  0  0  0  0  0  0  0  0
  141.3376  160.6376  132.6283 H   0  0  0  0  0  0  0  0  0  0  0  0
  1  2  1  0
  2  3  1  0
  3  4  2  0
  3  5  1  0
  5  6  1  0
  6  7  2  0
  6  8  1  0
  8  9  1  0
  9 10  2  0
  9 11  1  0
 11 12  1  0
 12 13  1  0
 13 14  1  0
 13 15  2  0
 12 16  2  0
 16 17  1  0
 17 18  2  0
 18 19  1  0
 19 20  2  0
 20 21  1  0
 21 22  1  0
 22 23  2  0
 22 24  1  0
 20 25  1  0
 25 26  2  0
 26 11  1  0
 26 17  1  0
  1 27  1  0
  1 28  1  0
  1 29  1  0
 14 30  1  0
 16 31  1  0
 18 32  1  0
 19 33  1  0
 21 34  1  0
 21 35  1  0
 25 36  1  0
M  CHG  2  14  -1  24  -1
M  END
>  <UniqueID>  (7) 
7

>  <SMILES>  (7) 
COC(=O)OC(=O)OC(=O)n1c(C([NH-])=O)cc2ccc(CC(=O)[O-])cc21

>  <Energy>  (7) 
74.00803695719753

>  <Genealogy>  (7) 
COC(=O)OC(=O)OC(=O)n1c(C([NH-])=O)cc2ccc(CC(=O)[O-])cc21 (protonated)
COC(=O)OC(=O)OC(=O)n1c(C([NH-])=O)cc2ccc(CC(=O)[O-])cc21 (3D coordinates assigned)
COC(=O)OC(=O)OC(=O)n1c(C([NH-])=O)cc2ccc(CC(=O)[O-])cc21 (optimized conformer: 74.00803695719753 kcal/mol)

>  <smiles>  (7) 
COC(=O)OC(=O)OC(=O)n1c(C(N)=O)cc2ccc(CC(=O)O)cc21

>  <score_type>  (7) 
oracle

>  <origin>  (7) 
adg

>  <m_score__min__energy>  (7) 
-6.5099999999999998

>  <m_primary>  (7) 
energy

$$$$
8:0
     RDKit          3D

 40 41  0  0  0  0  0  0  0  0999 V2000
  139.1690  157.6500  133.2300 C   0  0  0  0  0  0  0  0  0  0  0  0
  139.6200  158.0950  134.4000 C   0  0  0  0  0  0  0  0  0  0  0  0
  140.8160  158.9420  134.5060 C   0  0  0  0  0  0  0  0  0  0  0  0
  140.8230  160.0700  133.9430 O   0  0  0  0  0  0  0  0  0  0  0  0
  141.9320  158.5050  135.2290 O   0  0  0  0  0  0  0  0  0  0  0  0
  142.3740  157.1490  135.2290 C   0  0  0  0  0  0  0  0  0  0  0  0
  143.6090  157.0350  134.5270 O   0  0  0  0  0  0  0  0  0  0  0  0
  143.9660  157.8850  133.4760 C   0  0  0  0  0  0  0  0  0  0  0  0
  143.1090  158.2350  132.6190 O   0  0  0  0  0  0  0  0  0  0  0  0
  145.3130  158.3690  133.3800 N   0  0  0  0  0  0  0  0  0  0  0  0
  145.7650  159.6370  133.6000 C   0  0  0  0  0  0  0  0  0  0  0  0
  144.9250  160.8280  133.8420 C   0  0  0  0  0  0  0  0  0  0  0  0
  143.5070  160.7670  133.7020 N   0  0  0  0  0  0  0  0  0  0  0  0
  145.4690  161.9270  134.1280 O   0  0  0  0  0  0  0  0  0  0  0  0
  147.1520  159.6880  133.4720 C   0  0  0  0  0  0  0  0  0  0  0  0
  147.5370  158.4050  133.1530 C   0  0  0  0  0  0  0  0  0  0  0  0
  148.8040  157.8850  132.9060 C   0  0  0  0  0  0  0  0  0  0  0  0
  148.9070  156.5160  132.6090 C   0  0  0  0  0  0  0  0  0  0  0  0
  147.7520  155.6920  132.5770 C   0  0  0  0  0  0  0  0  0  0  0  0
  147.8700  154.2900  132.2520 N   0  0  0  0  0  0  0  0  0  0  0  0
  148.5040  153.5390  133.3470 C   0  0  0  0  0  0  0  0  0  0  0  0
  149.4070  152.4570  132.8260 C   0  0  0  0  0  0  0  0  0  0  0  0
  149.6340  152.3600  131.5920 O   0  0  0  0  0  0  0  0  0  0  0  0
  149.9640  151.5350  133.7040 O   0  0  0  0  0  0  0  0  0  0  0  0
  146.4830  156.2600  132.8320 C   0  0  0  0  0  0  0  0  0  0  0  0
  146.4080  157.6300  133.1030 C   0  0  0  0  0  0  0  0  0  0  0  0
  138.2697  157.0177  133.1917 H   0  0  0  0  0  0  0  0  0  0  0  0
  139.6955  157.9144  132.3010 H   0  0  0  0  0  0  0  0  0  0  0  0
  139.0799  157.8198  135.3179 H   0  0  0  0  0  0  0  0  0  0  0  0
  142.5133  156.8120  136.2668 H   0  0  0  0  0  0  0  0  0  0  0  0
  141.6181  156.5246  134.7302 H   0  0  0  0  0  0  0  0  0  0  0  0
  142.9760  159.9120  133.9770 H   0  0  0  0  0  0  0  0  0  0  0  0
  147.8013  160.5668  133.5989 H   0  0  0  0  0  0  0  0  0  0  0  0
  149.6971  158.5262  132.9422 H   0  0  0  0  0  0  0  0  0  0  0  0
  149.8938  156.0778  132.3989 H   0  0  0  0  0  0  0  0  0  0  0  0
  148.4130  154.1620  131.3650 H   0  0  0  0  0  0  0  0  0  0  0  0
  146.9130  153.8960  132.0860 H   0  0  0  0  0  0  0  0  0  0  0  0
  149.0966  154.2340  133.9601 H   0  0  0  0  0  0  0  0  0  0  0  0
  147.7104  153.0665  133.9444 H   0  0  0  0  0  0  0  0  0  0  0  0
  145.5753  155.6388  132.8176 H   0  0  0  0  0  0  0  0  0  0  0  0
  1  2  2  0
  2  3  1  0
  3  4  2  0
  3  5  1  0
  5  6  1  0
  6  7  1  0
  7  8  1  0
  8  9  2  0
  8 10  1  0
 10 11  1  0
 11 12  1  0
 12 13  1  0
 12 14  2  0
 11 15  2  0
 15 16  1  0
 16 17  2  0
 17 18  1  0
 18 19  2  0
 19 20  1  0
 20 21  1  0
 21 22  1  0
 22 23  2  0
 22 24  1  0
 19 25  1  0
 25 26  2  0
 26 10  1  0
 26 16  1  0
  1 27  1  0
  1 28  1  0
  2 29  1  0
  6 30  1  0
  6 31  1  0
 13 32  1  0
 15 33  1  0
 17 34  1  0
 18 35  1  0
 20 36  1  0
 20 37  1  0
 21 38  1  0
 21 39  1  0
 25 40  1  0
M  CHG  3  13  -1  20   1  24  -1
M  END
>  <UniqueID>  (8) 
8

>  <SMILES>  (8) 
C=CC(=O)OCOC(=O)n1c(C([NH-])=O)cc2ccc([NH2+]CC(=O)[O-])cc21

>  <Energy>  (8) 
73.54396540314198

>  <Genealogy>  (8) 
C=CC(=O)OCOC(=O)n1c(C([NH-])=O)cc2ccc([NH2+]CC(=O)[O-])cc21 (protonated)
C=CC(=O)OCOC(=O)n1c(C([NH-])=O)cc2ccc([NH2+]CC(=O)[O-])cc21 (3D coordinates assigned)
C=CC(=O)OCOC(=O)n1c(C([NH-])=O)cc2ccc([NH2+]CC(=O)[O-])cc21 (optimized conformer: 73.54396540314198 kcal/mol)

>  <smiles>  (8) 
C=CC(=O)OCOC(=O)n1c(C(N)=O)cc2ccc(NCC(=O)O)cc21

>  <score_type>  (8) 
oracle

>  <origin>  (8) 
adg

>  <m_score__min__energy>  (8) 
-6.0300000000000002

>  <m_primary>  (8) 
energy

$$$$
9:0
     RDKit          3D

 34 35  0  0  0  0  0  0  0  0999 V2000
  141.3610  158.9840  136.3070 C   0  0  0  0  0  0  0  0  0  0  0  0
  141.5730  158.5510  134.8590 C   0  0  1  0  0  0  0  0  0  0  0  0
  140.5470  159.0480  134.0720 F   0  0  0  0  0  0  0  0  0  0  0  0
  142.9030  159.0400  134.3470 C   0  0  0  0  0  0  0  0  0  0  0  0
  143.1160  160.4210  134.1030 C   0  0  0  0  0  0  0  0  0  0  0  0
  144.3610  160.8850  133.6460 C   0  0  0  0  0  0  0  0  0  0  0  0
  145.3770  159.9540  133.4620 C   0  0  0  0  0  0  0  0  0  0  0  0
  146.6660  160.1260  133.0090 C   0  0  0  0  0  0  0  0  0  0  0  0
  147.2340  158.8520  133.0180 C   0  0  0  0  0  0  0  0  0  0  0  0
  148.6440  158.5640  132.6630 C   0  0  0  0  0  0  0  0  0  0  0  0
  148.9820  157.4180  131.8780 N   0  0  0  0  0  0  0  0  0  0  0  0
  149.5610  159.3420  133.0360 O   0  0  0  0  0  0  0  0  0  0  0  0
  146.3330  157.9330  133.4660 N   0  0  0  0  0  0  0  0  0  0  0  0
  146.5180  156.5120  133.5740 C   0  0  0  0  0  0  0  0  0  0  0  0
  146.5370  155.8070  132.5290 O   0  0  0  0  0  0  0  0  0  0  0  0
  146.7030  155.8900  134.8990 C   0  0  0  0  0  0  0  0  0  0  0  0
  147.3980  154.7580  135.0690 C   0  0  0  0  0  0  0  0  0  0  0  0
  147.5800  154.1370  136.3910 C   0  0  0  0  0  0  0  0  0  0  0  0
  146.9130  153.1260  136.7330 O   0  0  0  0  0  0  0  0  0  0  0  0
  148.5050  154.6760  137.2760 O   0  0  0  0  0  0  0  0  0  0  0  0
  145.2000  158.6210  133.7260 C   0  0  0  0  0  0  0  0  0  0  0  0
  143.9650  158.1260  134.1610 C   0  0  0  0  0  0  0  0  0  0  0  0
  141.7428  158.2043  136.9825 H   0  0  0  0  0  0  0  0  0  0  0  0
  141.9004  159.9248  136.4911 H   0  0  0  0  0  0  0  0  0  0  0  0
  140.2871  159.1349  136.4911 H   0  0  0  0  0  0  0  0  0  0  0  0
  141.5694  157.4520  134.8125 H   0  0  0  0  0  0  0  0  0  0  0  0
  142.2978  161.1362  134.2734 H   0  0  0  0  0  0  0  0  0  0  0  0
  144.5268  161.9527  133.4400 H   0  0  0  0  0  0  0  0  0  0  0  0
  147.1458  161.0679  132.7047 H   0  0  0  0  0  0  0  0  0  0  0  0
  148.2630  156.7130  131.6030 H   0  0  0  0  0  0  0  0  0  0  0  0
  149.9750  157.2480  131.6030 H   0  0  0  0  0  0  0  0  0  0  0  0
  146.2538  156.3736  135.7790 H   0  0  0  0  0  0  0  0  0  0  0  0
  147.8488  154.2751  134.1895 H   0  0  0  0  0  0  0  0  0  0  0  0
  143.8245  157.0521  134.3533 H   0  0  0  0  0  0  0  0  0  0  0  0
  1  2  1  0
  2  3  1  0
  2  4  1  0
  4  5  2  0
  5  6  1  0
  6  7  2  0
  7  8  1  0
  8  9  2  0
  9 10  1  0
 10 11  1  0
 10 12  2  0
  9 13  1  0
 13 14  1  0
 14 15  2  0
 14 16  1  0
 16 17  2  3
 17 18  1  0
 18 19  2  0
 18 20  1  0
 13 21  1  0
 21 22  2  0
 22  4  1  0
 21  7  1  0
  1 23  1  0
  1 24  1  0
  1 25  1  0
  2 26  1  1
  5 27  1  0
  6 28  1  0
  8 29  1  0
 11 30  1  0
 11 31  1  0
 16 32  1  0
 17 33  1  0
 22 34  1  0
M  CHG  1  20  -1
M  END
>  <UniqueID>  (9) 
9

>  <SMILES>  (9) 
C[C@@H](F)c1ccc2cc(C(N)=O)n(C(=O)C=CC(=O)[O-])c2c1

>  <Energy>  (9) 
69.11733773082207

>  <Genealogy>  (9) 
CC(F)c1ccc2cc(C(N)=O)n(C(=O)C=CC(=O)[O-])c2c1 (protonated)
C[C@@H](F)c1ccc2cc(C(N)=O)n(C(=O)C=CC(=O)[O-])c2c1 (chirality)
C[C@@H](F)c1ccc2cc(C(N)=O)n(C(=O)C=CC(=O)[O-])c2c1 (3D coordinates assigned)
C[C@@H](F)c1ccc2cc(C(N)=O)n(C(=O)C=CC(=O)[O-])c2c1 (optimized conformer: 69.11733773082207 kcal/mol)

>  <smiles>  (9) 
CC(F)c1ccc2cc(C(N)=O)n(C(=O)C=CC(=O)O)c2c1

>  <score_type>  (9) 
oracle

>  <origin>  (9) 
adg

>  <m_score__min__energy>  (9) 
-7.7000000000000002

>  <m_primary>  (9) 
energy

$$$$
10:0
     RDKit          3D

 35 36  0  0  0  0  0  0  0  0999 V2000
  143.3550  160.4800  133.3720 N   0  0  0  0  0  0  0  0  0  0  0  0
  144.7040  160.4970  133.8350 C   0  0  0  0  0  0  0  0  0  0  0  0
  145.1150  161.4860  134.4970 O   0  0  0  0  0  0  0  0  0  0  0  0
  145.5860  159.3420  133.5690 C   0  0  0  0  0  0  0  0  0  0  0  0
  146.9710  159.4410  133.4640 C   0  0  0  0  0  0  0  0  0  0  0  0
  147.4040  158.1800  133.1270 C   0  0  0  0  0  0  0  0  0  0  0  0
  148.6940  157.7050  132.9110 C   0  0  0  0  0  0  0  0  0  0  0  0
  148.8510  156.3430  132.6080 C   0  0  0  0  0  0  0  0  0  0  0  0
  147.7250  155.4830  132.5270 C   0  0  0  0  0  0  0  0  0  0  0  0
  147.9050  154.0760  132.2540 N   0  0  0  0  0  0  0  0  0  0  0  0
  148.7860  153.4450  133.2490 C   0  0  0  0  0  0  0  0  0  0  0  0
  149.5940  152.3310  132.6500 C   0  0  0  0  0  0  0  0  0  0  0  0
  149.6060  152.1580  131.4030 O   0  0  0  0  0  0  0  0  0  0  0  0
  150.2980  151.4610  133.4730 O   0  0  0  0  0  0  0  0  0  0  0  0
  146.4310  156.0030  132.7570 C   0  0  0  0  0  0  0  0  0  0  0  0
  146.3030  157.3680  133.0410 C   0  0  0  0  0  0  0  0  0  0  0  0
  145.1780  158.0650  133.3150 N   0  0  0  0  0  0  0  0  0  0  0  0
  143.8450  157.5340  133.3820 C   0  0  0  0  0  0  0  0  0  0  0  0
  142.9500  157.9780  132.6120 O   0  0  0  0  0  0  0  0  0  0  0  0
  143.5410  156.5420  134.3220 O   0  0  0  0  0  0  0  0  0  0  0  0
  143.3220  155.1760  133.9760 C   0  0  0  0  0  0  0  0  0  0  0  0
  144.4890  154.3410  134.4000 C   0  0  0  0  0  0  0  0  0  0  0  0
  144.8410  154.3100  135.6080 O   0  0  0  0  0  0  0  0  0  0  0  0
  145.1690  153.5740  133.4630 O   0  0  0  0  0  0  0  0  0  0  0  0
  143.0660  159.8590  132.5830 H   0  0  0  0  0  0  0  0  0  0  0  0
  147.5883  160.3383  133.6181 H   0  0  0  0  0  0  0  0  0  0  0  0
  149.5636  158.3756  132.9756 H   0  0  0  0  0  0  0  0  0  0  0  0
  149.8583  155.9379  132.4314 H   0  0  0  0  0  0  0  0  0  0  0  0
  146.9800  153.5850  132.2290 H   0  0  0  0  0  0  0  0  0  0  0  0
  148.3370  153.9650  131.3070 H   0  0  0  0  0  0  0  0  0  0  0  0
  149.4713  154.2056  133.6513 H   0  0  0  0  0  0  0  0  0  0  0  0
  148.1555  153.0211  134.0445 H   0  0  0  0  0  0  0  0  0  0  0  0
  145.5460  155.3511  132.7139 H   0  0  0  0  0  0  0  0  0  0  0  0
  142.4142  154.8145  134.4811 H   0  0  0  0  0  0  0  0  0  0  0  0
  143.2022  155.0972  132.8854 H   0  0  0  0  0  0  0  0  0  0  0  0
  1  2  1  0
  2  3  2  0
  2  4  1  0
  4  5  2  0
  5  6  1  0
  6  7  2  0
  7  8  1  0
  8  9  2  0
  9 10  1  0
 10 11  1  0
 11 12  1  0
 12 13  2  0
 12 14  1  0
  9 15  1  0
 15 16  2  0
 16 17  1  0
 17 18  1  0
 18 19  2  0
 18 20  1  0
 20 21  1  0
 21 22  1  0
 22 23  2  0
 22 24  1  0
 17  4  1  0
 16  6  1  0
  1 25  1  0
  5 26  1  0
  7 27  1  0
  8 28  1  0
 10 29  1  0
 10 30  1  0
 11 31  1  0
 11 32  1  0
 15 33  1  0
 21 34  1  0
 21 35  1  0
M  CHG  4   1  -1  10   1  14  -1  24  -1
M  END
>  <UniqueID>  (10) 
10

>  <SMILES>  (10) 
[NH-]C(=O)c1cc2ccc([NH2+]CC(=O)[O-])cc2n1C(=O)OCC(=O)[O-]

>  <Energy>  (10) 
72.09688025128999

>  <Genealogy>  (10) 
[NH-]C(=O)c1cc2ccc([NH2+]CC(=O)[O-])cc2n1C(=O)OCC(=O)[O-] (protonated)
[NH-]C(=O)c1cc2ccc([NH2+]CC(=O)[O-])cc2n1C(=O)OCC(=O)[O-] (3D coordinates assigned)
[NH-]C(=O)c1cc2ccc([NH2+]CC(=O)[O-])cc2n1C(=O)OCC(=O)[O-] (optimized conformer: 72.09688025128999 kcal/mol)

>  <smiles>  (10) 
NC(=O)c1cc2ccc(NCC(=O)O)cc2n1C(=O)OCC(=O)O

>  <score_type>  (10) 
oracle

>  <origin>  (10) 
adg

>  <m_score__min__energy>  (10) 
-5.3499999999999996

>  <m_primary>  (10) 
energy

$$$$
11:0
     RDKit          3D

 40 42  0  0  0  0  0  0  0  0999 V2000
  149.2610  157.4030  132.2460 N   0  0  0  0  0  0  0  0  0  0  0  0
  148.8050  158.7360  132.4690 C   0  0  0  0  0  0  0  0  0  0  0  0
  149.6010  159.6960  132.2960 O   0  0  0  0  0  0  0  0  0  0  0  0
  147.4250  158.9720  132.9400 C   0  0  0  0  0  0  0  0  0  0  0  0
  146.8480  160.2380  133.0290 C   0  0  0  0  0  0  0  0  0  0  0  0
  145.5490  160.0180  133.4240 C   0  0  0  0  0  0  0  0  0  0  0  0
  144.5320  160.9250  133.6860 C   0  0  0  0  0  0  0  0  0  0  0  0
  143.2930  160.4250  134.1170 C   0  0  0  0  0  0  0  0  0  0  0  0
  143.0750  159.0230  134.2870 C   0  0  0  0  0  0  0  0  0  0  0  0
  141.7860  158.5120  134.7500 N   0  0  0  0  0  0  0  0  0  0  0  0
  140.7790  158.0810  133.7570 C   0  0  0  0  0  0  0  0  0  0  0  0
  139.5060  157.5020  134.3820 C   0  0  0  0  0  0  0  0  0  0  0  0
  139.1520  158.2010  135.5510 O   0  0  0  0  0  0  0  0  0  0  0  0
  140.1160  157.9280  136.5410 C   0  0  0  0  0  0  0  0  0  0  0  0
  141.4570  158.5770  136.1890 C   0  0  0  0  0  0  0  0  0  0  0  0
  144.1560  158.1410  134.0080 C   0  0  0  0  0  0  0  0  0  0  0  0
  145.3730  158.6710  133.5640 C   0  0  0  0  0  0  0  0  0  0  0  0
  146.5170  158.0120  133.2710 N   0  0  0  0  0  0  0  0  0  0  0  0
  146.7390  156.5960  133.3750 C   0  0  0  0  0  0  0  0  0  0  0  0
  146.8440  155.8980  132.3300 O   0  0  0  0  0  0  0  0  0  0  0  0
  146.8170  155.9980  134.6360 O   0  0  0  0  0  0  0  0  0  0  0  0
  147.2700  154.6630  134.8260 C   0  0  0  0  0  0  0  0  0  0  0  0
  146.4280  154.0040  135.8660 C   0  0  0  0  0  0  0  0  0  0  0  0
  145.2190  154.3320  136.0030 O   0  0  0  0  0  0  0  0  0  0  0  0
  146.9930  153.0720  136.7300 O   0  0  0  0  0  0  0  0  0  0  0  0
  148.7100  156.7390  131.6590 H   0  0  0  0  0  0  0  0  0  0  0  0
  147.3290  161.2063  132.8265 H   0  0  0  0  0  0  0  0  0  0  0  0
  144.6922  162.0059  133.5595 H   0  0  0  0  0  0  0  0  0  0  0  0
  142.4729  161.1271  134.3282 H   0  0  0  0  0  0  0  0  0  0  0  0
  140.5004  158.9514  133.1448 H   0  0  0  0  0  0  0  0  0  0  0  0
  141.2382  157.2784  133.1613 H   0  0  0  0  0  0  0  0  0  0  0  0
  138.6832  157.5767  133.6557 H   0  0  0  0  0  0  0  0  0  0  0  0
  139.6938  156.4510  134.6469 H   0  0  0  0  0  0  0  0  0  0  0  0
  139.7653  158.3253  137.5049 H   0  0  0  0  0  0  0  0  0  0  0  0
  140.2576  156.8390  136.6039 H   0  0  0  0  0  0  0  0  0  0  0  0
  141.4213  159.6344  136.4901 H   0  0  0  0  0  0  0  0  0  0  0  0
  142.2373  158.0158  136.7240 H   0  0  0  0  0  0  0  0  0  0  0  0
  144.0368  157.0554  134.1397 H   0  0  0  0  0  0  0  0  0  0  0  0
  147.1877  154.1081  133.8798 H   0  0  0  0  0  0  0  0  0  0  0  0
  148.3208  154.6715  135.1513 H   0  0  0  0  0  0  0  0  0  0  0  0
  1  2  1  0
  2  3  2  0
  2  4  1  0
  4  5  2  0
  5  6  1  0
  6  7  2  0
  7  8  1  0
  8  9  2  0
  9 10  1  0
 10 11  1  0
 11 12  1  0
 12 13  1  0
 13 14  1  0
 14 15  1  0
  9 16  1  0
 16 17  2  0
 17 18  1  0
 18 19  1  0
 19 20  2  0
 19 21  1  0
 21 22  1  0
 22 23  1  0
 23 24  2  0
 23 25  1  0
 18  4  1  0
 17  6  1  0
 15 10  1  0
  1 26  1  0
  5 27  1  0
  7 28  1  0
  8 29  1  0
 11 30  1  0
 11 31  1  0
 12 32  1  0
 12 33  1  0
 14 34  1  0
 14 35  1  0
 15 36  1  0
 15 37  1  0
 16 38  1  0
 22 39  1  0
 22 40  1  0
M  CHG  2   1  -1  25  -1
M  END
>  <UniqueID>  (11) 
11

>  <SMILES>  (11) 
[NH-]C(=O)c1cc2ccc(N3CCOCC3)cc2n1C(=O)OCC(=O)[O-]

>  <Energy>  (11) 
84.86929230002092

>  <Genealogy>  (11) 
[NH-]C(=O)c1cc2ccc(N3CCOCC3)cc2n1C(=O)OCC(=O)[O-] (protonated)
[NH-]C(=O)c1cc2ccc(N3CCOCC3)cc2n1C(=O)OCC(=O)[O-] (3D coordinates assigned)
[NH-]C(=O)c1cc2ccc(N3CCOCC3)cc2n1C(=O)OCC(=O)[O-] (nonaromatic ring conformer: 84.86929230002092 kcal/mol)

>  <smiles>  (11) 
NC(=O)c1cc2ccc(N3CCOCC3)cc2n1C(=O)OCC(=O)O

>  <score_type>  (11) 
oracle

>  <origin>  (11) 
adg

>  <m_score__min__energy>  (11) 
-7.2199999999999998

>  <m_primary>  (11) 
energy

$$$$
12:0
     RDKit          3D

 37 38  0  0  0  0  0  0  0  0999 V2000
  148.4960  153.0900  137.2440 C   0  0  0  0  0  0  0  0  0  0  0  0
  147.3240  153.0490  136.4590 O   0  0  0  0  0  0  0  0  0  0  0  0
  146.4590  154.1120  136.8110 C   0  0  0  0  0  0  0  0  0  0  0  0
  145.2030  154.0840  135.9360 C   0  0  0  0  0  0  0  0  0  0  0  0
  145.5430  153.7950  134.5820 O   0  0  0  0  0  0  0  0  0  0  0  0
  145.5280  154.7530  133.5610 C   0  0  0  0  0  0  0  0  0  0  0  0
  144.5280  154.8530  132.7980 O   0  0  0  0  0  0  0  0  0  0  0  0
  146.6570  155.6250  133.3850 N   0  0  0  0  0  0  0  0  0  0  0  0
  147.9370  155.2660  133.0890 C   0  0  0  0  0  0  0  0  0  0  0  0
  148.4630  153.8870  133.0560 C   0  0  0  0  0  0  0  0  0  0  0  0
  147.7880  152.8200  133.7250 N   0  0  0  0  0  0  0  0  0  0  0  0
  149.5570  153.6550  132.4730 O   0  0  0  0  0  0  0  0  0  0  0  0
  148.7250  156.3910  132.8590 C   0  0  0  0  0  0  0  0  0  0  0  0
  147.8830  157.4650  133.0380 C   0  0  0  0  0  0  0  0  0  0  0  0
  148.1350  158.8280  132.9110 C   0  0  0  0  0  0  0  0  0  0  0  0
  147.0660  159.7160  133.1090 C   0  0  0  0  0  0  0  0  0  0  0  0
  145.7730  159.2310  133.4280 C   0  0  0  0  0  0  0  0  0  0  0  0
  144.6280  160.1900  133.5920 C   0  0  0  0  0  0  0  0  0  0  0  0
  145.1160  161.4650  134.1280 C   0  0  0  0  0  0  0  0  0  0  0  0
  145.5000  162.4710  134.5510 N   0  0  0  0  0  0  0  0  0  0  0  0
  145.5520  157.8400  133.5360 C   0  0  0  0  0  0  0  0  0  0  0  0
  146.6400  156.9770  133.3530 C   0  0  0  0  0  0  0  0  0  0  0  0
  148.2240  153.0805  138.3098 H   0  0  0  0  0  0  0  0  0  0  0  0
  149.1202  152.2131  137.0171 H   0  0  0  0  0  0  0  0  0  0  0  0
  149.0574  154.0083  137.0171 H   0  0  0  0  0  0  0  0  0  0  0  0
  146.1685  154.0095  137.8670 H   0  0  0  0  0  0  0  0  0  0  0  0
  146.9827  155.0669  136.6564 H   0  0  0  0  0  0  0  0  0  0  0  0
  144.5184  153.3088  136.3105 H   0  0  0  0  0  0  0  0  0  0  0  0
  144.7187  155.0707  135.9779 H   0  0  0  0  0  0  0  0  0  0  0  0
  148.1520  151.8450  133.6570 H   0  0  0  0  0  0  0  0  0  0  0  0
  146.9750  153.0070  134.3520 H   0  0  0  0  0  0  0  0  0  0  0  0
  149.7917  156.4159  132.5916 H   0  0  0  0  0  0  0  0  0  0  0  0
  149.1408  159.1979  132.6631 H   0  0  0  0  0  0  0  0  0  0  0  0
  147.2335  160.7992  133.0156 H   0  0  0  0  0  0  0  0  0  0  0  0
  144.1545  160.3630  132.6143 H   0  0  0  0  0  0  0  0  0  0  0  0
  143.8944  159.7612  134.2905 H   0  0  0  0  0  0  0  0  0  0  0  0
  144.5500  157.4442  133.7584 H   0  0  0  0  0  0  0  0  0  0  0  0
  1  2  1  0
  2  3  1  0
  3  4  1  0
  4  5  1  0
  5  6  1  0
  6  7  2  0
  6  8  1  0
  8  9  1  0
  9 10  1  0
 10 11  1  0
 10 12  2  0
  9 13  2  0
 13 14  1  0
 14 15  2  0
 15 16  1  0
 16 17  2  0
 17 18  1  0
 18 19  1  0
 19 20  3  0
 17 21  1  0
 21 22  2  0
 22  8  1  0
 22 14  1  0
  1 23  1  0
  1 24  1  0
  1 25  1  0
  3 26  1  0
  3 27  1  0
  4 28  1  0
  4 29  1  0
 11 30  1  0
 11 31  1  0
 13 32  1  0
 15 33  1  0
 16 34  1  0
 18 35  1  0
 18 36  1  0
 21 37  1  0
M  END
>  <UniqueID>  (12) 
12

>  <SMILES>  (12) 
COCCOC(=O)n1c(C(N)=O)cc2ccc(CC#N)cc21

>  <Energy>  (12) 
73.05714255465423

>  <Genealogy>  (12) 
COCCOC(=O)n1c(C(N)=O)cc2ccc(CC#N)cc21 (3D coordinates assigned)
COCCOC(=O)n1c(C(N)=O)cc2ccc(CC#N)cc21 (optimized conformer: 73.05714255465423 kcal/mol)

>  <smiles>  (12) 
COCCOC(=O)n1c(C(N)=O)cc2ccc(CC#N)cc21

>  <score_type>  (12) 
oracle

>  <origin>  (12) 
adg

>  <m_score__min__energy>  (12) 
-6.6299999999999999

>  <m_primary>  (12) 
energy

$$$$
13:0
     RDKit          3D

 39 41  0  0  0  0  0  0  0  0999 V2000
  147.4240  150.9980  132.2490 C   0  0  0  0  0  0  0  0  0  0  0  0
  147.8870  152.4010  132.4700 C   0  0  0  0  0  0  0  0  0  0  0  0
  149.0900  152.8410  132.1890 O   0  0  0  0  0  0  0  0  0  0  0  0
  149.0950  154.1120  132.5250 C   0  0  0  0  0  0  0  0  0  0  0  0
  150.0950  154.8640  132.3960 O   0  0  0  0  0  0  0  0  0  0  0  0
  147.9410  154.5100  133.0100 O   0  0  0  0  0  0  0  0  0  0  0  0
  147.1580  153.4570  132.9870 C   0  0  0  0  0  0  0  0  0  0  0  0
  145.7340  153.4510  133.4540 C   0  0  0  0  0  0  0  0  0  0  0  0
  145.2090  154.7770  133.4580 O   0  0  0  0  0  0  0  0  0  0  0  0
  143.9340  155.0990  132.9820 C   0  0  0  0  0  0  0  0  0  0  0  0
  143.0930  154.1880  132.7480 O   0  0  0  0  0  0  0  0  0  0  0  0
  143.6160  156.4470  132.7780 O   0  0  0  0  0  0  0  0  0  0  0  0
  143.5490  157.4200  133.7840 C   0  0  0  0  0  0  0  0  0  0  0  0
  142.8170  157.2530  134.7970 O   0  0  0  0  0  0  0  0  0  0  0  0
  144.3050  158.6330  133.6460 N   0  0  0  0  0  0  0  0  0  0  0  0
  143.8790  159.9090  133.8720 C   0  0  0  0  0  0  0  0  0  0  0  0
  142.4870  160.3250  134.1380 C   0  0  0  0  0  0  0  0  0  0  0  0
  141.7500  159.7680  135.2230 N   0  0  0  0  0  0  0  0  0  0  0  0
  141.9220  161.1450  133.3650 O   0  0  0  0  0  0  0  0  0  0  0  0
  144.9350  160.8080  133.7380 C   0  0  0  0  0  0  0  0  0  0  0  0
  146.0290  160.0400  133.4120 C   0  0  0  0  0  0  0  0  0  0  0  0
  147.3480  160.4160  133.1750 C   0  0  0  0  0  0  0  0  0  0  0  0
  148.2800  159.4040  132.8880 C   0  0  0  0  0  0  0  0  0  0  0  0
  147.8800  158.0470  132.8520 C   0  0  0  0  0  0  0  0  0  0  0  0
  148.8400  157.0250  132.5720 N   0  0  0  0  0  0  0  0  0  0  0  0
  146.5350  157.7010  133.0980 C   0  0  0  0  0  0  0  0  0  0  0  0
  145.6230  158.7310  133.3630 C   0  0  0  0  0  0  0  0  0  0  0  0
  147.2623  150.5079  133.2204 H   0  0  0  0  0  0  0  0  0  0  0  0
  146.4815  151.0079  131.6819 H   0  0  0  0  0  0  0  0  0  0  0  0
  148.1873  150.4450  131.6819 H   0  0  0  0  0  0  0  0  0  0  0  0
  145.1331  152.8248  132.7782 H   0  0  0  0  0  0  0  0  0  0  0  0
  145.6944  153.0473  134.4765 H   0  0  0  0  0  0  0  0  0  0  0  0
  142.1680  159.0340  135.8360 H   0  0  0  0  0  0  0  0  0  0  0  0
  144.9012  161.9000  133.8658 H   0  0  0  0  0  0  0  0  0  0  0  0
  147.6516  161.4727  133.2112 H   0  0  0  0  0  0  0  0  0  0  0  0
  149.3291  159.6689  132.6897 H   0  0  0  0  0  0  0  0  0  0  0  0
  149.7610  157.0080  133.0630 H   0  0  0  0  0  0  0  0  0  0  0  0
  148.6360  156.2790  131.8700 H   0  0  0  0  0  0  0  0  0  0  0  0
  146.2106  156.6501  133.0822 H   0  0  0  0  0  0  0  0  0  0  0  0
  1  2  1  0
  2  3  1  0
  3  4  1  0
  4  5  2  0
  4  6  1  0
  6  7  1  0
  7  8  1  0
  8  9  1  0
  9 10  1  0
 10 11  2  0
 10 12  1  0
 12 13  1  0
 13 14  2  0
 13 15  1  0
 15 16  1  0
 16 17  1  0
 17 18  1  0
 17 19  2  0
 16 20  2  0
 20 21  1  0
 21 22  2  0
 22 23  1  0
 23 24  2  0
 24 25  1  0
 24 26  1  0
 26 27  2  0
  7  2  2  0
 27 15  1  0
 27 21  1  0
  1 28  1  0
  1 29  1  0
  1 30  1  0
  8 31  1  0
  8 32  1  0
 18 33  1  0
 20 34  1  0
 22 35  1  0
 23 36  1  0
 25 37  1  0
 25 38  1  0
 26 39  1  0
M  CHG  1  18  -1
M  END
>  <UniqueID>  (13) 
13

>  <SMILES>  (13) 
Cc1oc(=O)oc1COC(=O)OC(=O)n1c(C([NH-])=O)cc2ccc(N)cc21

>  <Energy>  (13) 
110.73513570357022

>  <Genealogy>  (13) 
Cc1oc(=O)oc1COC(=O)OC(=O)n1c(C([NH-])=O)cc2ccc(N)cc21 (protonated)
Cc1oc(=O)oc1COC(=O)OC(=O)n1c(C([NH-])=O)cc2ccc(N)cc21 (3D coordinates assigned)
Cc1oc(=O)oc1COC(=O)OC(=O)n1c(C([NH-])=O)cc2ccc(N)cc21 (optimized conformer: 110.73513570357022 kcal/mol)

>  <smiles>  (13) 
Cc1oc(=O)oc1COC(=O)OC(=O)n1c(C(N)=O)cc2ccc(N)cc21

>  <score_type>  (13) 
oracle

>  <origin>  (13) 
adg

>  <m_score__min__energy>  (13) 
-7.1500000000000004

>  <m_primary>  (13) 
energy

$$$$
14:0
     RDKit          3D

 52 53  0  0  0  0  0  0  0  0999 V2000
  138.6210  160.3270  131.1560 C   0  0  0  0  0  0  0  0  0  0  0  0
  137.9050  159.1970  131.6040 O   0  0  0  0  0  0  0  0  0  0  0  0
  138.7570  158.0720  131.6430 C   0  0  0  0  0  0  0  0  0  0  0  0
  138.8520  157.5930  132.9700 O   0  0  0  0  0  0  0  0  0  0  0  0
  139.1270  156.2110  132.9560 C   0  0  0  0  0  0  0  0  0  0  0  0
  140.4800  156.0140  133.3490 O   0  0  0  0  0  0  0  0  0  0  0  0
  141.0460  156.6240  134.4720 C   0  0  0  0  0  0  0  0  0  0  0  0
  140.3950  157.5270  135.0680 O   0  0  0  0  0  0  0  0  0  0  0  0
  142.3580  156.2250  134.9550 N   0  0  0  0  0  0  0  0  0  0  0  0
  142.5140  155.9810  136.4060 C   0  0  0  0  0  0  0  0  0  0  0  0
  143.5400  156.1180  134.0360 C   0  0  0  0  0  0  0  0  0  0  0  0
  143.5150  154.7670  133.2730 C   0  0  0  0  0  0  0  0  0  0  0  0
  144.8830  156.1340  134.8230 C   0  0  0  0  0  0  0  0  0  0  0  0
  143.5140  157.2760  133.0370 C   0  0  0  0  0  0  0  0  0  0  0  0
  142.9970  157.1210  131.8990 O   0  0  0  0  0  0  0  0  0  0  0  0
  144.0760  158.5570  133.3570 N   0  0  0  0  0  0  0  0  0  0  0  0
  143.4250  159.6740  133.7830 C   0  0  0  0  0  0  0  0  0  0  0  0
  141.9640  159.8080  133.9550 C   0  0  0  0  0  0  0  0  0  0  0  0
  141.0610  159.2090  133.0290 N   0  0  0  0  0  0  0  0  0  0  0  0
  141.5070  160.4880  134.9120 O   0  0  0  0  0  0  0  0  0  0  0  0
  144.3340  160.7090  134.0060 C   0  0  0  0  0  0  0  0  0  0  0  0
  145.5670  160.1890  133.6770 C   0  0  0  0  0  0  0  0  0  0  0  0
  146.8250  160.7830  133.6860 C   0  0  0  0  0  0  0  0  0  0  0  0
  147.9230  160.0040  133.2760 C   0  0  0  0  0  0  0  0  0  0  0  0
  147.7430  158.6580  132.8730 C   0  0  0  0  0  0  0  0  0  0  0  0
  148.9140  157.8530  132.3950 C   0  0  0  0  0  0  0  0  0  0  0  0
  146.4470  158.0950  132.8610 C   0  0  0  0  0  0  0  0  0  0  0  0
  145.3790  158.8920  133.2810 C   0  0  0  0  0  0  0  0  0  0  0  0
  138.9834  160.8989  132.0230 H   0  0  0  0  0  0  0  0  0  0  0  0
  139.4776  160.0009  130.5479 H   0  0  0  0  0  0  0  0  0  0  0  0
  137.9603  160.9623  130.5479 H   0  0  0  0  0  0  0  0  0  0  0  0
  138.3483  157.2811  130.9970 H   0  0  0  0  0  0  0  0  0  0  0  0
  139.7572  158.3595  131.2866 H   0  0  0  0  0  0  0  0  0  0  0  0
  138.4577  155.6927  133.6585 H   0  0  0  0  0  0  0  0  0  0  0  0
  138.9659  155.8058  131.9461 H   0  0  0  0  0  0  0  0  0  0  0  0
  142.0048  156.7774  136.9686 H   0  0  0  0  0  0  0  0  0  0  0  0
  142.0699  155.0083  136.6641 H   0  0  0  0  0  0  0  0  0  0  0  0
  143.5833  155.9759  136.6641 H   0  0  0  0  0  0  0  0  0  0  0  0
  143.4997  153.9379  133.9958 H   0  0  0  0  0  0  0  0  0  0  0  0
  142.6158  154.7193  132.6412 H   0  0  0  0  0  0  0  0  0  0  0  0
  144.4118  154.6861  132.6412 H   0  0  0  0  0  0  0  0  0  0  0  0
  144.6751  156.1315  135.9032 H   0  0  0  0  0  0  0  0  0  0  0  0
  145.4722  155.2428  134.5610 H   0  0  0  0  0  0  0  0  0  0  0  0
  145.4508  157.0390  134.5610 H   0  0  0  0  0  0  0  0  0  0  0  0
  140.9230  158.1740  133.0060 H   0  0  0  0  0  0  0  0  0  0  0  0
  144.1132  161.7242  134.3675 H   0  0  0  0  0  0  0  0  0  0  0  0
  146.9572  161.8279  134.0034 H   0  0  0  0  0  0  0  0  0  0  0  0
  148.9309  160.4446  133.2684 H   0  0  0  0  0  0  0  0  0  0  0  0
  149.4729  157.4688  133.2611 H   0  0  0  0  0  0  0  0  0  0  0  0
  148.5554  157.0096  131.7866 H   0  0  0  0  0  0  0  0  0  0  0  0
  149.5730  158.4899  131.7866 H   0  0  0  0  0  0  0  0  0  0  0  0
  146.2836  157.0587  132.5304 H   0  0  0  0  0  0  0  0  0  0  0  0
  1  2  1  0
  2  3  1  0
  3  4  1  0
  4  5  1  0
  5  6  1  0
  6  7  1  0
  7  8  2  0
  7  9  1  0
  9 10  1  0
  9 11  1  0
 11 12  1  0
 11 13  1  0
 11 14  1  0
 14 15  2  0
 14 16  1  0
 16 17  1  0
 17 18  1  0
 18 19  1  0
 18 20  2  0
 17 21  2  0
 21 22  1  0
 22 23  2  0
 23 24  1  0
 24 25  2  0
 25 26  1  0
 25 27  1  0
 27 28  2  0
 28 16  1  0
 28 22  1  0
  1 29  1  0
  1 30  1  0
  1 31  1  0
  3 32  1  0
  3 33  1  0
  5 34  1  0
  5 35  1  0
 10 36  1  0
 10 37  1  0
 10 38  1  0
 12 39  1  0
 12 40  1  0
 12 41  1  0
 13 42  1  0
 13 43  1  0
 13 44  1  0
 19 45  1  0
 21 46  1  0
 23 47  1  0
 24 48  1  0
 26 49  1  0
 26 50  1  0
 26 51  1  0
 27 52  1  0
M  CHG  1  19  -1
M  END
>  <UniqueID>  (14) 
14

>  <SMILES>  (14) 
COCOCOC(=O)N(C)C(C)(C)C(=O)n1c(C([NH-])=O)cc2ccc(C)cc21

>  <Energy>  (14) 
98.7401358725864

>  <Genealogy>  (14) 
COCOCOC(=O)N(C)C(C)(C)C(=O)n1c(C([NH-])=O)cc2ccc(C)cc21 (protonated)
COCOCOC(=O)N(C)C(C)(C)C(=O)n1c(C([NH-])=O)cc2ccc(C)cc21 (3D coordinates assigned)
COCOCOC(=O)N(C)C(C)(C)C(=O)n1c(C([NH-])=O)cc2ccc(C)cc21 (optimized conformer: 98.7401358725864 kcal/mol)

>  <smiles>  (14) 
COCOCOC(=O)N(C)C(C)(C)C(=O)n1c(C(N)=O)cc2ccc(C)cc21

>  <score_type>  (14) 
oracle

>  <origin>  (14) 
adg

>  <m_score__min__energy>  (14) 
-6.2999999999999998

>  <m_primary>  (14) 
energy

$$$$
15:0
     RDKit          3D

 44 45  0  0  0  0  0  0  0  0999 V2000
  148.3140  153.3040  137.1610 C   0  0  0  0  0  0  0  0  0  0  0  0
  146.9910  153.3580  136.5590 N   0  0  0  0  0  0  0  0  0  0  0  0
  146.6320  154.3220  135.5650 C   0  0  0  0  0  0  0  0  0  0  0  0
  145.5070  154.8910  135.6030 O   0  0  0  0  0  0  0  0  0  0  0  0
  147.6010  154.6560  134.4820 C   0  0  0  0  0  0  0  0  0  0  0  0
  147.6140  156.0660  134.2900 O   0  0  0  0  0  0  0  0  0  0  0  0
  147.2000  156.6770  133.1050 C   0  0  0  0  0  0  0  0  0  0  0  0
  147.1500  156.0170  132.0310 O   0  0  0  0  0  0  0  0  0  0  0  0
  146.8660  158.0740  133.1070 N   0  0  0  0  0  0  0  0  0  0  0  0
  147.6760  159.1350  132.8280 C   0  0  0  0  0  0  0  0  0  0  0  0
  149.0560  159.0610  132.3060 C   0  0  0  0  0  0  0  0  0  0  0  0
  149.6100  157.8230  131.8670 N   0  0  0  0  0  0  0  0  0  0  0  0
  149.7390  160.1150  132.1970 O   0  0  0  0  0  0  0  0  0  0  0  0
  146.9930  160.3350  133.0180 C   0  0  0  0  0  0  0  0  0  0  0  0
  145.7250  159.9740  133.4130 C   0  0  0  0  0  0  0  0  0  0  0  0
  144.6290  160.7680  133.7370 C   0  0  0  0  0  0  0  0  0  0  0  0
  143.4450  160.1250  134.1340 C   0  0  0  0  0  0  0  0  0  0  0  0
  143.3770  158.7090  134.2140 C   0  0  0  0  0  0  0  0  0  0  0  0
  142.1660  158.0490  134.6450 N   0  0  0  0  0  0  0  0  0  0  0  0
  142.2560  156.7100  135.2350 C   0  0  0  0  0  0  0  0  0  0  0  0
  140.8750  158.7630  134.7200 C   0  0  1  0  0  0  0  0  0  0  0  0
  139.9010  158.2670  133.6400 C   0  0  0  0  0  0  0  0  0  0  0  0
  140.3050  158.6800  136.1120 C   0  0  0  0  0  0  0  0  0  0  0  0
  139.2240  158.0740  136.3390 O   0  0  0  0  0  0  0  0  0  0  0  0
  140.9570  159.3220  137.1580 O   0  0  0  0  0  0  0  0  0  0  0  0
  144.5150  157.9410  133.8760 C   0  0  0  0  0  0  0  0  0  0  0  0
  145.6740  158.6060  133.4600 C   0  0  0  0  0  0  0  0  0  0  0  0
  148.2186  153.3079  138.2568 H   0  0  0  0  0  0  0  0  0  0  0  0
  148.8253  152.3842  136.8407 H   0  0  0  0  0  0  0  0  0  0  0  0
  148.8986  154.1790  136.8407 H   0  0  0  0  0  0  0  0  0  0  0  0
  148.6064  154.3136  134.7683 H   0  0  0  0  0  0  0  0  0  0  0  0
  147.3015  154.1568  133.5487 H   0  0  0  0  0  0  0  0  0  0  0  0
  148.9980  157.0590  131.5060 H   0  0  0  0  0  0  0  0  0  0  0  0
  147.3842  161.3540  132.8813 H   0  0  0  0  0  0  0  0  0  0  0  0
  144.6881  161.8651  133.6838 H   0  0  0  0  0  0  0  0  0  0  0  0
  142.5590  160.7262  134.3862 H   0  0  0  0  0  0  0  0  0  0  0  0
  142.2505  156.7916  136.3320 H   0  0  0  0  0  0  0  0  0  0  0  0
  141.3964  156.1066  134.9079 H   0  0  0  0  0  0  0  0  0  0  0  0
  143.1886  156.2271  134.9079 H   0  0  0  0  0  0  0  0  0  0  0  0
  141.0462  159.8289  134.5091 H   0  0  0  0  0  0  0  0  0  0  0  0
  139.0190  157.8179  134.1200 H   0  0  0  0  0  0  0  0  0  0  0  0
  139.5858  159.1144  133.0134 H   0  0  0  0  0  0  0  0  0  0  0  0
  140.4009  157.5137  133.0134 H   0  0  0  0  0  0  0  0  0  0  0  0
  144.4899  156.8431  133.9388 H   0  0  0  0  0  0  0  0  0  0  0  0
  1  2  1  0
  2  3  1  0
  3  4  2  0
  3  5  1  0
  5  6  1  0
  6  7  1  0
  7  8  2  0
  7  9  1  0
  9 10  1  0
 10 11  1  0
 11 12  1  0
 11 13  2  0
 10 14  2  0
 14 15  1  0
 15 16  2  0
 16 17  1  0
 17 18  2  0
 18 19  1  0
 19 20  1  0
 19 21  1  0
 21 22  1  0
 21 23  1  0
 23 24  2  0
 23 25  1  0
 18 26  1  0
 26 27  2  0
 27  9  1  0
 27 15  1  0
  1 28  1  0
  1 29  1  0
  1 30  1  0
  5 31  1  0
  5 32  1  0
 12 33  1  0
 14 34  1  0
 16 35  1  0
 17 36  1  0
 20 37  1  0
 20 38  1  0
 20 39  1  0
 21 40  1  6
 22 41  1  0
 22 42  1  0
 22 43  1  0
 26 44  1  0
M  CHG  3   2  -1  12  -1  25  -1
M  END
>  <UniqueID>  (15) 
15

>  <SMILES>  (15) 
C[N-]C(=O)COC(=O)n1c(C([NH-])=O)cc2ccc(N(C)[C@@H](C)C(=O)[O-])cc21

>  <Energy>  (15) 
79.46650849516895

>  <Genealogy>  (15) 
C[N-]C(=O)COC(=O)n1c(C([NH-])=O)cc2ccc(N(C)C(C)C(=O)[O-])cc21 (protonated)
C[N-]C(=O)COC(=O)n1c(C([NH-])=O)cc2ccc(N(C)[C@@H](C)C(=O)[O-])cc21 (chirality)
C[N-]C(=O)COC(=O)n1c(C([NH-])=O)cc2ccc(N(C)[C@@H](C)C(=O)[O-])cc21 (3D coordinates assigned)
C[N-]C(=O)COC(=O)n1c(C([NH-])=O)cc2ccc(N(C)[C@@H](C)C(=O)[O-])cc21 (optimized conformer: 79.46650849516895 kcal/mol)

>  <smiles>  (15) 
CNC(=O)COC(=O)n1c(C(N)=O)cc2ccc(N(C)C(C)C(=O)O)cc21

>  <score_type>  (15) 
oracle

>  <origin>  (15) 
adg

>  <m_score__min__energy>  (15) 
-7.1299999999999999

>  <m_primary>  (15) 
energy

$$$$
16:0
     RDKit          3D

 36 37  0  0  0  0  0  0  0  0999 V2000
  148.4350  153.9390  133.7300 C   0  0  0  0  0  0  0  0  0  0  0  0
  147.7190  154.8420  134.6420 N   0  0  0  0  0  0  0  0  0  0  0  0
  148.0820  154.8450  136.0670 C   0  0  0  0  0  0  0  0  0  0  0  0
  147.8400  153.4920  136.6600 C   0  0  0  0  0  0  0  0  0  0  0  0
  148.8070  152.8120  137.0950 O   0  0  0  0  0  0  0  0  0  0  0  0
  146.5440  152.9980  136.7700 O   0  0  0  0  0  0  0  0  0  0  0  0
  146.6910  155.7530  134.1730 C   0  0  0  0  0  0  0  0  0  0  0  0
  145.6410  155.8950  134.8570 O   0  0  0  0  0  0  0  0  0  0  0  0
  146.8110  156.5540  132.9290 C   0  0  0  0  0  0  0  0  0  0  0  0
  146.9490  156.0000  131.8060 O   0  0  0  0  0  0  0  0  0  0  0  0
  146.7600  157.9880  132.9940 N   0  0  0  0  0  0  0  0  0  0  0  0
  147.7840  158.8700  132.8060 C   0  0  0  0  0  0  0  0  0  0  0  0
  149.1530  158.5280  132.3620 C   0  0  0  0  0  0  0  0  0  0  0  0
  149.5700  157.1710  132.2390 N   0  0  0  0  0  0  0  0  0  0  0  0
  149.9560  159.4490  132.0570 O   0  0  0  0  0  0  0  0  0  0  0  0
  147.3500  160.1740  133.0350 C   0  0  0  0  0  0  0  0  0  0  0  0
  146.0200  160.0640  133.3730 C   0  0  0  0  0  0  0  0  0  0  0  0
  145.0960  161.0480  133.7100 C   0  0  0  0  0  0  0  0  0  0  0  0
  143.7910  160.6420  134.0400 C   0  0  0  0  0  0  0  0  0  0  0  0
  143.4400  159.2660  134.0530 C   0  0  0  0  0  0  0  0  0  0  0  0
  142.0260  158.8460  134.3650 C   0  0  0  0  0  0  0  0  0  0  0  0
  141.5870  157.8950  133.4590 F   0  0  0  0  0  0  0  0  0  0  0  0
  141.1680  159.9310  134.3030 F   0  0  0  0  0  0  0  0  0  0  0  0
  141.9810  158.3080  135.6380 F   0  0  0  0  0  0  0  0  0  0  0  0
  144.4040  158.2980  133.6890 C   0  0  0  0  0  0  0  0  0  0  0  0
  145.6890  158.7340  133.3460 C   0  0  0  0  0  0  0  0  0  0  0  0
  149.0135  153.2094  134.3157 H   0  0  0  0  0  0  0  0  0  0  0  0
  147.7099  153.4078  133.0958 H   0  0  0  0  0  0  0  0  0  0  0  0
  149.1175  154.5239  133.0958 H   0  0  0  0  0  0  0  0  0  0  0  0
  149.1461  155.1033  136.1713 H   0  0  0  0  0  0  0  0  0  0  0  0
  147.4645  155.5864  136.5953 H   0  0  0  0  0  0  0  0  0  0  0  0
  149.0420  156.4990  131.6390 H   0  0  0  0  0  0  0  0  0  0  0  0
  147.9445  161.0966  132.9613 H   0  0  0  0  0  0  0  0  0  0  0  0
  145.3778  162.1113  133.7180 H   0  0  0  0  0  0  0  0  0  0  0  0
  143.0332  161.3988  134.2910 H   0  0  0  0  0  0  0  0  0  0  0  0
  144.1502  157.2278  133.6757 H   0  0  0  0  0  0  0  0  0  0  0  0
  1  2  1  0
  2  3  1  0
  3  4  1  0
  4  5  2  0
  4  6  1  0
  2  7  1  0
  7  8  2  0
  7  9  1  0
  9 10  2  0
  9 11  1  0
 11 12  1  0
 12 13  1  0
 13 14  1  0
 13 15  2  0
 12 16  2  0
 16 17  1  0
 17 18  2  0
 18 19  1  0
 19 20  2  0
 20 21  1  0
 21 22  1  0
 21 23  1  0
 21 24  1  0
 20 25  1  0
 25 26  2  0
 26 11  1  0
 26 17  1  0
  1 27  1  0
  1 28  1  0
  1 29  1  0
  3 30  1  0
  3 31  1  0
 14 32  1  0
 16 33  1  0
 18 34  1  0
 19 35  1  0
 25 36  1  0
M  CHG  2   6  -1  14  -1
M  END
>  <UniqueID>  (16) 
16

>  <SMILES>  (16) 
CN(CC(=O)[O-])C(=O)C(=O)n1c(C([NH-])=O)cc2ccc(C(F)(F)F)cc21

>  <Energy>  (16) 
76.6030646554741

>  <Genealogy>  (16) 
CN(CC(=O)[O-])C(=O)C(=O)n1c(C([NH-])=O)cc2ccc(C(F)(F)F)cc21 (protonated)
CN(CC(=O)[O-])C(=O)C(=O)n1c(C([NH-])=O)cc2ccc(C(F)(F)F)cc21 (3D coordinates assigned)
CN(CC(=O)[O-])C(=O)C(=O)n1c(C([NH-])=O)cc2ccc(C(F)(F)F)cc21 (optimized conformer: 76.6030646554741 kcal/mol)

>  <smiles>  (16) 
CN(CC(=O)O)C(=O)C(=O)n1c(C(N)=O)cc2ccc(C(F)(F)F)cc21

>  <score_type>  (16) 
oracle

>  <origin>  (16) 
adg

>  <m_score__min__energy>  (16) 
-6.2999999999999998

>  <m_primary>  (16) 
energy

$$$$
17:0
     RDKit          3D

 31 32  0  0  0  0  0  0  0  0999 V2000
  147.2370  160.8700  133.3480 N   0  0  0  0  0  0  0  0  0  0  0  0
  146.1880  159.9030  133.2720 C   0  0  0  0  0  0  0  0  0  0  0  0
  144.9890  160.2910  133.2910 O   0  0  0  0  0  0  0  0  0  0  0  0
  146.4810  158.4570  133.2410 C   0  0  0  0  0  0  0  0  0  0  0  0
  145.6020  157.4880  133.7160 C   0  0  0  0  0  0  0  0  0  0  0  0
  146.2670  156.2930  133.5740 C   0  0  0  0  0  0  0  0  0  0  0  0
  145.8540  154.9980  133.8760 C   0  0  0  0  0  0  0  0  0  0  0  0
  146.7350  153.9420  133.5890 C   0  0  0  0  0  0  0  0  0  0  0  0
  147.9940  154.2000  133.0020 C   0  0  0  0  0  0  0  0  0  0  0  0
  148.8810  153.1070  132.7020 C   0  0  0  0  0  0  0  0  0  0  0  0
  149.6230  152.1910  132.4510 C   0  0  0  0  0  0  0  0  0  0  0  0
  150.5250  151.0740  132.1440 C   0  0  0  0  0  0  0  0  0  0  0  0
  150.2670  150.5350  130.7350 C   0  0  0  0  0  0  0  0  0  0  0  0
  151.4740  150.2790  130.0680 O   0  0  0  0  0  0  0  0  0  0  0  0
  148.3840  155.5220  132.7060 C   0  0  0  0  0  0  0  0  0  0  0  0
  147.4960  156.5590  133.0210 C   0  0  0  0  0  0  0  0  0  0  0  0
  147.6410  157.8870  132.8080 N   0  0  0  0  0  0  0  0  0  0  0  0
  148.7360  158.5400  132.1410 C   0  0  0  0  0  0  0  0  0  0  0  0
  148.9230  158.3740  130.9080 O   0  0  0  0  0  0  0  0  0  0  0  0
  149.5960  159.3680  132.8520 O   0  0  0  0  0  0  0  0  0  0  0  0
  147.0120  161.8890  133.3330 H   0  0  0  0  0  0  0  0  0  0  0  0
  148.2270  160.5790  133.5010 H   0  0  0  0  0  0  0  0  0  0  0  0
  144.5906  157.6449  134.1192 H   0  0  0  0  0  0  0  0  0  0  0  0
  144.8682  154.8076  134.3255 H   0  0  0  0  0  0  0  0  0  0  0  0
  146.4427  152.9076  133.8228 H   0  0  0  0  0  0  0  0  0  0  0  0
  151.5660  151.4229  132.2111 H   0  0  0  0  0  0  0  0  0  0  0  0
  150.3430  150.2662  132.8681 H   0  0  0  0  0  0  0  0  0  0  0  0
  149.6901  149.6012  130.8067 H   0  0  0  0  0  0  0  0  0  0  0  0
  149.7052  151.2911  130.1670 H   0  0  0  0  0  0  0  0  0  0  0  0
  151.4310  150.7680  129.2050 H   0  0  0  0  0  0  0  0  0  0  0  0
  149.3581  155.7335  132.2408 H   0  0  0  0  0  0  0  0  0  0  0  0
  1  2  1  0
  2  3  2  0
  2  4  1  0
  4  5  2  0
  5  6  1  0
  6  7  2  0
  7  8  1  0
  8  9  2  0
  9 10  1  0
 10 11  3  0
 11 12  1  0
 12 13  1  0
 13 14  1  0
  9 15  1  0
 15 16  2  0
 16 17  1  0
 17 18  1  0
 18 19  2  0
 18 20  1  0
 17  4  1  0
 16  6  1  0
  1 21  1  0
  1 22  1  0
  5 23  1  0
  7 24  1  0
  8 25  1  0
 12 26  1  0
 12 27  1  0
 13 28  1  0
 13 29  1  0
 14 30  1  0
 15 31  1  0
M  CHG  1  20  -1
M  END
>  <UniqueID>  (17) 
17

>  <SMILES>  (17) 
NC(=O)c1cc2ccc(C#CCCO)cc2n1C(=O)[O-]

>  <Energy>  (17) 
64.60206122653894

>  <Genealogy>  (17) 
NC(=O)c1cc2ccc(C#CCCO)cc2n1C(=O)[O-] (protonated)
NC(=O)c1cc2ccc(C#CCCO)cc2n1C(=O)[O-] (3D coordinates assigned)
NC(=O)c1cc2ccc(C#CCCO)cc2n1C(=O)[O-] (optimized conformer: 64.60206122653894 kcal/mol)

>  <smiles>  (17) 
NC(=O)c1cc2ccc(C#CCCO)cc2n1C(=O)O

>  <score_type>  (17) 
oracle

>  <origin>  (17) 
adg

>  <m_score__min__energy>  (17) 
-6.6500000000000004

>  <m_primary>  (17) 
energy

$$$$
18:0
     RDKit          3D

 48 50  0  0  0  0  0  0  0  0999 V2000
  138.4580  159.2720  132.2080 C   0  0  0  0  0  0  0  0  0  0  0  0
  139.6620  158.5020  132.7540 C   0  0  1  0  0  0  0  0  0  0  0  0
  140.9250  159.4070  132.8160 C   0  0  0  0  0  0  0  0  0  0  0  0
  141.8520  158.9490  133.8580 N   0  0  0  0  0  0  0  0  0  0  0  0
  143.2730  159.1710  133.7250 C   0  0  0  0  0  0  0  0  0  0  0  0
  143.8260  160.4510  133.9910 C   0  0  0  0  0  0  0  0  0  0  0  0
  145.2070  160.6800  133.8710 C   0  0  0  0  0  0  0  0  0  0  0  0
  146.0120  159.6180  133.4750 C   0  0  0  0  0  0  0  0  0  0  0  0
  147.3750  159.5570  133.3020 C   0  0  0  0  0  0  0  0  0  0  0  0
  147.6410  158.2480  132.9060 C   0  0  0  0  0  0  0  0  0  0  0  0
  148.9870  157.7710  132.5260 C   0  0  0  0  0  0  0  0  0  0  0  0
  149.3200  156.3870  132.5900 N   0  0  0  0  0  0  0  0  0  0  0  0
  149.8400  158.5910  132.0940 O   0  0  0  0  0  0  0  0  0  0  0  0
  146.4870  157.5250  132.8440 N   0  0  0  0  0  0  0  0  0  0  0  0
  146.3360  156.1260  132.5590 C   0  0  0  0  0  0  0  0  0  0  0  0
  146.9120  155.6230  131.5560 O   0  0  0  0  0  0  0  0  0  0  0  0
  145.5750  155.3230  133.4150 O   0  0  0  0  0  0  0  0  0  0  0  0
  145.7180  155.3270  134.8340 C   0  0  0  0  0  0  0  0  0  0  0  0
  147.3570  154.6930  135.3080 P   0  0  1  0  0  0  0  0  0  0  0  0
  148.1540  155.7970  135.9630 O   0  0  0  0  0  0  0  0  0  0  0  0
  147.1930  153.4030  136.3890 O   0  0  0  0  0  0  0  0  0  0  0  0
  148.1720  154.1610  133.9240 O   0  0  0  0  0  0  0  0  0  0  0  0
  145.4980  158.3800  133.1930 C   0  0  0  0  0  0  0  0  0  0  0  0
  144.1300  158.1180  133.3230 C   0  0  0  0  0  0  0  0  0  0  0  0
  141.3050  158.4970  135.1430 C   0  0  0  0  0  0  0  0  0  0  0  0
  139.7710  158.5510  135.1140 C   0  0  2  0  0  0  0  0  0  0  0  0
  139.1840  157.9040  136.3660 C   0  0  0  0  0  0  0  0  0  0  0  0
  139.3040  157.8580  133.9740 O   0  0  0  0  0  0  0  0  0  0  0  0
  137.8576  159.6560  133.0459 H   0  0  0  0  0  0  0  0  0  0  0  0
  138.8092  160.1135  131.5927 H   0  0  0  0  0  0  0  0  0  0  0  0
  137.8414  158.6002  131.5927 H   0  0  0  0  0  0  0  0  0  0  0  0
  139.9504  157.6935  132.0661 H   0  0  0  0  0  0  0  0  0  0  0  0
  141.4360  159.3780  131.8423 H   0  0  0  0  0  0  0  0  0  0  0  0
  140.6086  160.4329  133.0558 H   0  0  0  0  0  0  0  0  0  0  0  0
  143.1641  161.2752  134.2953 H   0  0  0  0  0  0  0  0  0  0  0  0
  145.6381  161.6694  134.0839 H   0  0  0  0  0  0  0  0  0  0  0  0
  148.1017  160.3701  133.4459 H   0  0  0  0  0  0  0  0  0  0  0  0
  148.6120  155.6540  132.3620 H   0  0  0  0  0  0  0  0  0  0  0  0
  145.6056  156.3558  135.2068 H   0  0  0  0  0  0  0  0  0  0  0  0
  144.9444  154.6796  135.2725 H   0  0  0  0  0  0  0  0  0  0  0  0
  147.9230  154.8100  133.2190 H   0  0  0  0  0  0  0  0  0  0  0  0
  143.7285  157.1148  133.1172 H   0  0  0  0  0  0  0  0  0  0  0  0
  141.6288  157.4629  135.3323 H   0  0  0  0  0  0  0  0  0  0  0  0
  141.6726  159.1575  135.9421 H   0  0  0  0  0  0  0  0  0  0  0  0
  139.4555  159.6042  135.0780 H   0  0  0  0  0  0  0  0  0  0  0  0
  139.6145  158.3785  137.2601 H   0  0  0  0  0  0  0  0  0  0  0  0
  138.0921  158.0372  136.3700 H   0  0  0  0  0  0  0  0  0  0  0  0
  139.4225  156.8302  136.3700 H   0  0  0  0  0  0  0  0  0  0  0  0
  1  2  1  0
  2  3  1  0
  3  4  1  0
  4  5  1  0
  5  6  2  0
  6  7  1  0
  7  8  2  0
  8  9  1  0
  9 10  2  0
 10 11  1  0
 11 12  1  0
 11 13  2  0
 10 14  1  0
 14 15  1  0
 15 16  2  0
 15 17  1  0
 17 18  1  0
 18 19  1  0
 19 20  2  0
 19 21  1  1
 19 22  1  0
 14 23  1  0
 23 24  2  0
  4 25  1  0
 25 26  1  0
 26 27  1  0
 26 28  1  0
 28  2  1  0
 24  5  1  0
 23  8  1  0
  1 29  1  0
  1 30  1  0
  1 31  1  0
  2 32  1  6
  3 33  1  0
  3 34  1  0
  6 35  1  0
  7 36  1  0
  9 37  1  0
 12 38  1  0
 18 39  1  0
 18 40  1  0
 22 41  1  0
 24 42  1  0
 25 43  1  0
 25 44  1  0
 26 45  1  6
 27 46  1  0
 27 47  1  0
 27 48  1  0
M  CHG  2  12  -1  21  -1
M  END
>  <UniqueID>  (18) 
18

>  <SMILES>  (18) 
CC1CN(c2ccc3cc(C([NH-])=O)n(C(=O)OC[P@@](=O)([O-])O)c3c2)C[C@H](C)O1

>  <Energy>  (18) 
88.74743276057893

>  <Genealogy>  (18) 
CC1CN(c2ccc3cc(C([NH-])=O)n(C(=O)OCP(=O)([O-])O)c3c2)CC(C)O1 (protonated)
CC1CN(c2ccc3cc(C([NH-])=O)n(C(=O)OC[P@@](=O)([O-])O)c3c2)C[C@H](C)O1 (chirality)
CC1CN(c2ccc3cc(C([NH-])=O)n(C(=O)OC[P@@](=O)([O-])O)c3c2)C[C@H](C)O1 (3D coordinates assigned)
CC1CN(c2ccc3cc(C([NH-])=O)n(C(=O)OC[P@@](=O)([O-])O)c3c2)C[C@H](C)O1 (nonaromatic ring conformer: 88.74743276057893 kcal/mol)

>  <smiles>  (18) 
CC1CN(c2ccc3cc(C(N)=O)n(C(=O)OCP(=O)(O)O)c3c2)CC(C)O1

>  <score_type>  (18) 
oracle

>  <origin>  (18) 
adg

>  <m_score__min__energy>  (18) 
-7.75

>  <m_primary>  (18) 
energy

$$$$
19:0
     RDKit          3D

 42 43  0  0  0  0  0  0  0  0999 V2000
  138.7630  149.2960  131.5670 C   0  0  0  0  0  0  0  0  0  0  0  0
  139.9870  150.0610  131.9730 C   0  0  0  0  0  0  0  0  0  0  0  0
  141.2260  149.3910  132.1210 C   0  0  0  0  0  0  0  0  0  0  0  0
  142.3750  150.0920  132.5250 C   0  0  0  0  0  0  0  0  0  0  0  0
  142.2490  151.4520  132.7920 C   0  0  0  0  0  0  0  0  0  0  0  0
  143.1980  152.3740  133.1710 C   0  0  0  0  0  0  0  0  0  0  0  0
  142.5140  153.5840  133.2860 C   0  0  0  0  0  0  0  0  0  0  0  0
  143.1470  154.8400  133.7380 C   0  0  0  0  0  0  0  0  0  0  0  0
  143.5110  155.8560  132.8070 N   0  0  0  0  0  0  0  0  0  0  0  0
  143.3370  155.0370  134.9690 O   0  0  0  0  0  0  0  0  0  0  0  0
  141.1940  153.4140  132.9890 N   0  0  0  0  0  0  0  0  0  0  0  0
  140.1720  154.4180  132.9160 C   0  0  0  0  0  0  0  0  0  0  0  0
  138.9580  154.0810  132.9800 O   0  0  0  0  0  0  0  0  0  0  0  0
  140.5320  155.8000  132.7850 N   0  0  0  0  0  0  0  0  0  0  0  0
  139.5550  156.8820  132.8860 C   0  0  0  0  0  0  0  0  0  0  0  0
  139.5200  157.4320  134.3210 C   0  0  0  0  0  0  0  0  0  0  0  0
  140.9200  157.8080  134.8820 C   0  0  0  0  0  0  0  0  0  0  0  0
  141.3010  156.8980  136.0640 C   0  0  0  0  0  0  0  0  0  0  0  0
  140.8960  159.2690  135.3750 C   0  0  0  0  0  0  0  0  0  0  0  0
  141.9040  157.6710  133.8850 O   0  0  0  0  0  0  0  0  0  0  0  0
  141.0480  152.1060  132.6860 C   0  0  0  0  0  0  0  0  0  0  0  0
  139.8930  151.4380  132.2680 C   0  0  0  0  0  0  0  0  0  0  0  0
  138.2256  148.9601  132.4661 H   0  0  0  0  0  0  0  0  0  0  0  0
  138.1067  149.9450  130.9685 H   0  0  0  0  0  0  0  0  0  0  0  0
  139.0588  148.4217  130.9685 H   0  0  0  0  0  0  0  0  0  0  0  0
  141.2895  148.3118  131.9178 H   0  0  0  0  0  0  0  0  0  0  0  0
  143.3440  149.5815  132.6270 H   0  0  0  0  0  0  0  0  0  0  0  0
  144.2690  152.1945  133.3461 H   0  0  0  0  0  0  0  0  0  0  0  0
  142.7820  156.4070  132.3000 H   0  0  0  0  0  0  0  0  0  0  0  0
  141.5270  156.0420  132.5730 H   0  0  0  0  0  0  0  0  0  0  0  0
  139.8344  157.6899  132.1937 H   0  0  0  0  0  0  0  0  0  0  0  0
  138.5596  156.4928  132.6259 H   0  0  0  0  0  0  0  0  0  0  0  0
  138.8884  158.3326  134.3321 H   0  0  0  0  0  0  0  0  0  0  0  0
  139.1221  156.6314  134.9618 H   0  0  0  0  0  0  0  0  0  0  0  0
  141.0842  157.4157  137.0100 H   0  0  0  0  0  0  0  0  0  0  0  0
  140.7170  155.9672  136.0132 H   0  0  0  0  0  0  0  0  0  0  0  0
  142.3739  156.6609  136.0132 H   0  0  0  0  0  0  0  0  0  0  0  0
  140.8957  159.2849  136.4749 H   0  0  0  0  0  0  0  0  0  0  0  0
  141.7856  159.7969  135.0009 H   0  0  0  0  0  0  0  0  0  0  0  0
  139.9895  159.7674  135.0009 H   0  0  0  0  0  0  0  0  0  0  0  0
  142.4690  156.8870  134.1190 H   0  0  0  0  0  0  0  0  0  0  0  0
  138.9360  151.9718  132.1716 H   0  0  0  0  0  0  0  0  0  0  0  0
  1  2  1  0
  2  3  2  0
  3  4  1  0
  4  5  2  0
  5  6  1  0
  6  7  2  0
  7  8  1  0
  8  9  1  0
  8 10  2  0
  7 11  1  0
 11 12  1  0
 12 13  2  0
 12 14  1  0
 14 15  1  0
 15 16  1  0
 16 17  1  0
 17 18  1  0
 17 19  1  0
 17 20  1  0
 11 21  1  0
 21 22  2  0
 22  2  1  0
 21  5  1  0
  1 23  1  0
  1 24  1  0
  1 25  1  0
  3 26  1  0
  4 27  1  0
  6 28  1  0
  9 29  1  0
 14 30  1  0
 15 31  1  0
 15 32  1  0
 16 33  1  0
 16 34  1  0
 18 35  1  0
 18 36  1  0
 18 37  1  0
 19 38  1  0
 19 39  1  0
 19 40  1  0
 20 41  1  0
 22 42  1  0
M  CHG  1   9  -1
M  END
>  <UniqueID>  (19) 
19

>  <SMILES>  (19) 
Cc1ccc2cc(C([NH-])=O)n(C(=O)NCCC(C)(C)O)c2c1

>  <Energy>  (19) 
73.29436631178827

>  <Genealogy>  (19) 
Cc1ccc2cc(C([NH-])=O)n(C(=O)NCCC(C)(C)O)c2c1 (protonated)
Cc1ccc2cc(C([NH-])=O)n(C(=O)NCCC(C)(C)O)c2c1 (3D coordinates assigned)
Cc1ccc2cc(C([NH-])=O)n(C(=O)NCCC(C)(C)O)c2c1 (optimized conformer: 73.29436631178827 kcal/mol)

>  <smiles>  (19) 
Cc1ccc2cc(C(N)=O)n(C(=O)NCCC(C)(C)O)c2c1

>  <score_type>  (19) 
oracle

>  <origin>  (19) 
adg

>  <m_score__min__energy>  (19) 
-7.4199999999999999

>  <m_primary>  (19) 
energy

$$$$
20:0
     RDKit          3D

 47 49  0  0  0  0  0  0  0  0999 V2000
  139.7370  158.7330  132.2750 C   0  0  0  0  0  0  0  0  0  0  0  0
  139.5820  158.4590  133.6610 O   0  0  0  0  0  0  0  0  0  0  0  0
  139.8350  157.1990  134.2120 C   0  0  0  0  0  0  0  0  0  0  0  0
  139.8150  157.0320  135.4620 O   0  0  0  0  0  0  0  0  0  0  0  0
  140.1400  156.0680  133.3250 C   0  0  0  0  0  0  0  0  0  0  0  0
  139.2480  155.6290  132.5500 O   0  0  0  0  0  0  0  0  0  0  0  0
  141.4420  155.4600  133.3250 N   0  0  0  0  0  0  0  0  0  0  0  0
  142.6510  156.0850  133.3920 C   0  0  0  0  0  0  0  0  0  0  0  0
  142.8630  157.5350  133.5790 C   0  0  0  0  0  0  0  0  0  0  0  0
  142.4150  158.1700  134.7740 N   0  0  0  0  0  0  0  0  0  0  0  0
  143.4210  158.2260  132.6860 O   0  0  0  0  0  0  0  0  0  0  0  0
  143.6840  155.1520  133.3100 C   0  0  0  0  0  0  0  0  0  0  0  0
  143.0630  153.9300  133.1850 C   0  0  0  0  0  0  0  0  0  0  0  0
  143.6080  152.6590  133.0480 C   0  0  0  0  0  0  0  0  0  0  0  0
  142.7250  151.5750  132.9080 C   0  0  0  0  0  0  0  0  0  0  0  0
  141.3170  151.7720  132.8930 C   0  0  0  0  0  0  0  0  0  0  0  0
  140.4120  150.6510  132.7430 N   0  0  0  0  0  0  0  0  0  0  0  0
  140.6880  149.3890  133.4410 C   0  0  0  0  0  0  0  0  0  0  0  0
  139.2280  150.7340  131.8730 C   0  0  0  0  0  0  0  0  0  0  0  0
  138.7730  149.3140  131.4430 C   0  0  0  0  0  0  0  0  0  0  0  0
  139.5500  148.6470  130.3650 N   0  0  0  0  0  0  0  0  0  0  0  0
  139.9760  147.2710  130.6470 C   0  0  0  0  0  0  0  0  0  0  0  0
  139.1070  146.6950  129.5430 C   0  0  0  0  0  0  0  0  0  0  0  0
  138.7310  148.1390  129.2580 C   0  0  0  0  0  0  0  0  0  0  0  0
  140.8080  153.0880  133.0350 C   0  0  0  0  0  0  0  0  0  0  0  0
  141.7110  154.1440  133.1940 C   0  0  0  0  0  0  0  0  0  0  0  0
  140.2749  159.6839  132.1471 H   0  0  0  0  0  0  0  0  0  0  0  0
  140.3097  157.9213  131.8026 H   0  0  0  0  0  0  0  0  0  0  0  0
  138.7463  158.8058  131.8026 H   0  0  0  0  0  0  0  0  0  0  0  0
  141.4090  158.4120  134.9090 H   0  0  0  0  0  0  0  0  0  0  0  0
  144.7656  155.3504  133.3390 H   0  0  0  0  0  0  0  0  0  0  0  0
  144.6973  152.5062  133.0491 H   0  0  0  0  0  0  0  0  0  0  0  0
  143.1298  150.5571  132.8084 H   0  0  0  0  0  0  0  0  0  0  0  0
  140.6516  149.5555  134.5277 H   0  0  0  0  0  0  0  0  0  0  0  0
  139.9322  148.6412  133.1591 H   0  0  0  0  0  0  0  0  0  0  0  0
  141.6870  149.0249  133.1591 H   0  0  0  0  0  0  0  0  0  0  0  0
  138.4103  151.2268  132.4195 H   0  0  0  0  0  0  0  0  0  0  0  0
  139.4850  151.3141  130.9744 H   0  0  0  0  0  0  0  0  0  0  0  0
  138.8200  148.6683  132.3323 H   0  0  0  0  0  0  0  0  0  0  0  0
  137.7672  149.4552  131.0206 H   0  0  0  0  0  0  0  0  0  0  0  0
  141.0518  147.1047  130.4890 H   0  0  0  0  0  0  0  0  0  0  0  0
  139.8649  146.8796  131.6690 H   0  0  0  0  0  0  0  0  0  0  0  0
  139.6538  146.1864  128.7353 H   0  0  0  0  0  0  0  0  0  0  0  0
  138.3603  145.9069  129.7200 H   0  0  0  0  0  0  0  0  0  0  0  0
  139.0631  148.4911  128.2702 H   0  0  0  0  0  0  0  0  0  0  0  0
  137.6663  148.4124  129.2158 H   0  0  0  0  0  0  0  0  0  0  0  0
  139.7240  153.2745  133.0204 H   0  0  0  0  0  0  0  0  0  0  0  0
  1  2  1  0
  2  3  1  0
  3  4  2  0
  3  5  1  0
  5  6  2  0
  5  7  1  0
  7  8  1  0
  8  9  1  0
  9 10  1  0
  9 11  2  0
  8 12  2  0
 12 13  1  0
 13 14  2  0
 14 15  1  0
 15 16  2  0
 16 17  1  0
 17 18  1  0
 17 19  1  0
 19 20  1  0
 20 21  1  0
 21 22  1  0
 22 23  1  0
 23 24  1  0
 16 25  1  0
 25 26  2  0
 26  7  1  0
 26 13  1  0
 24 21  1  0
  1 27  1  0
  1 28  1  0
  1 29  1  0
 10 30  1  0
 12 31  1  0
 14 32  1  0
 15 33  1  0
 18 34  1  0
 18 35  1  0
 18 36  1  0
 19 37  1  0
 19 38  1  0
 20 39  1  0
 20 40  1  0
 22 41  1  0
 22 42  1  0
 23 43  1  0
 23 44  1  0
 24 45  1  0
 24 46  1  0
 25 47  1  0
M  CHG  1  10  -1
M  END
>  <UniqueID>  (20) 
20

>  <SMILES>  (20) 
COC(=O)C(=O)n1c(C([NH-])=O)cc2ccc(N(C)CCN3CCC3)cc21

>  <Energy>  (20) 
160.85486622012746

>  <Genealogy>  (20) 
COC(=O)C(=O)n1c(C([NH-])=O)cc2ccc(N(C)CCN3CCC3)cc21 (protonated)
COC(=O)C(=O)n1c(C([NH-])=O)cc2ccc(N(C)CCN3CCC3)cc21 (3D coordinates assigned)
COC(=O)C(=O)n1c(C([NH-])=O)cc2ccc(N(C)CCN3CCC3)cc21 (nonaromatic ring conformer: 160.85486622012746 kcal/mol)

>  <smiles>  (20) 
COC(=O)C(=O)n1c(C(N)=O)cc2ccc(N(C)CCN3CCC3)cc21

>  <score_type>  (20) 
oracle

>  <origin>  (20) 
adg

>  <m_score__min__energy>  (20) 
-7.1600000000000001

>  <m_primary>  (20) 
energy

$$$$
21:0
     RDKit          3D

 41 43  0  0  0  0  0  0  0  0999 V2000
  138.7350  158.7790  132.6830 C   0  0  0  0  0  0  0  0  0  0  0  0
  138.9120  157.7380  133.6380 O   0  0  0  0  0  0  0  0  0  0  0  0
  139.4640  156.5000  133.3120 C   0  0  0  0  0  0  0  0  0  0  0  0
  139.1090  155.9110  132.2570 O   0  0  0  0  0  0  0  0  0  0  0  0
  140.4490  155.9050  134.1790 N   0  0  0  0  0  0  0  0  0  0  0  0
  140.9840  156.4460  135.3100 C   0  0  0  0  0  0  0  0  0  0  0  0
  140.8030  157.8360  135.7790 C   0  0  0  0  0  0  0  0  0  0  0  0
  139.5030  158.3730  136.0290 N   0  0  0  0  0  0  0  0  0  0  0  0
  141.8080  158.5790  135.9070 O   0  0  0  0  0  0  0  0  0  0  0  0
  141.8360  155.5390  135.9340 C   0  0  0  0  0  0  0  0  0  0  0  0
  141.8300  154.4250  135.1310 C   0  0  0  0  0  0  0  0  0  0  0  0
  142.5300  153.2330  135.2620 C   0  0  0  0  0  0  0  0  0  0  0  0
  142.3530  152.2530  134.2740 C   0  0  0  0  0  0  0  0  0  0  0  0
  141.4740  152.4760  133.1780 C   0  0  0  0  0  0  0  0  0  0  0  0
  141.2730  151.4900  132.1440 N   0  0  0  0  0  0  0  0  0  0  0  0
  140.5100  150.2380  132.3010 C   0  0  0  0  0  0  0  0  0  0  0  0
  140.6260  149.6490  133.7180 C   0  0  0  0  0  0  0  0  0  0  0  0
  140.8400  149.2080  131.2070 C   0  0  0  0  0  0  0  0  0  0  0  0
  139.4110  149.2990  130.6910 C   0  0  0  0  0  0  0  0  0  0  0  0
  139.0790  150.3340  131.7590 C   0  0  0  0  0  0  0  0  0  0  0  0
  140.7680  153.6960  133.0960 C   0  0  0  0  0  0  0  0  0  0  0  0
  140.9850  154.6670  134.0800 C   0  0  0  0  0  0  0  0  0  0  0  0
  138.5728  159.7329  133.2062 H   0  0  0  0  0  0  0  0  0  0  0  0
  139.6332  158.8548  132.0525 H   0  0  0  0  0  0  0  0  0  0  0  0
  137.8623  158.5537  132.0525 H   0  0  0  0  0  0  0  0  0  0  0  0
  139.3920  159.3560  136.3570 H   0  0  0  0  0  0  0  0  0  0  0  0
  138.6470  157.8260  135.8070 H   0  0  0  0  0  0  0  0  0  0  0  0
  142.3948  155.6837  136.8704 H   0  0  0  0  0  0  0  0  0  0  0  0
  143.2032  153.0623  136.1150 H   0  0  0  0  0  0  0  0  0  0  0  0
  142.9000  151.3015  134.3476 H   0  0  0  0  0  0  0  0  0  0  0  0
  141.7980  151.6300  131.2520 H   0  0  0  0  0  0  0  0  0  0  0  0
  140.4691  150.4456  134.4602 H   0  0  0  0  0  0  0  0  0  0  0  0
  139.8647  148.8666  133.8533 H   0  0  0  0  0  0  0  0  0  0  0  0
  141.6271  149.2138  133.8533 H   0  0  0  0  0  0  0  0  0  0  0  0
  141.5999  149.5455  130.4869 H   0  0  0  0  0  0  0  0  0  0  0  0
  141.2751  148.2333  131.4728 H   0  0  0  0  0  0  0  0  0  0  0  0
  139.3304  149.6771  129.6612 H   0  0  0  0  0  0  0  0  0  0  0  0
  138.7996  148.3898  130.5931 H   0  0  0  0  0  0  0  0  0  0  0  0
  138.8166  151.3241  131.3580 H   0  0  0  0  0  0  0  0  0  0  0  0
  138.2196  150.1849  132.4293 H   0  0  0  0  0  0  0  0  0  0  0  0
  140.0606  153.8798  132.2739 H   0  0  0  0  0  0  0  0  0  0  0  0
  1  2  1  0
  2  3  1  0
  3  4  2  0
  3  5  1  0
  5  6  1  0
  6  7  1  0
  7  8  1  0
  7  9  2  0
  6 10  2  0
 10 11  1  0
 11 12  2  0
 12 13  1  0
 13 14  2  0
 14 15  1  0
 15 16  1  0
 16 17  1  0
 16 18  1  0
 18 19  1  0
 19 20  1  0
 14 21  1  0
 21 22  2  0
 22  5  1  0
 22 11  1  0
 20 16  1  0
  1 23  1  0
  1 24  1  0
  1 25  1  0
  8 26  1  0
  8 27  1  0
 10 28  1  0
 12 29  1  0
 13 30  1  0
 15 31  1  0
 17 32  1  0
 17 33  1  0
 17 34  1  0
 18 35  1  0
 18 36  1  0
 19 37  1  0
 19 38  1  0
 20 39  1  0
 20 40  1  0
 21 41  1  0
M  END
>  <UniqueID>  (21) 
21

>  <SMILES>  (21) 
COC(=O)n1c(C(N)=O)cc2ccc(NC3(C)CCC3)cc21

>  <Energy>  (21) 
140.72029219949468

>  <Genealogy>  (21) 
COC(=O)n1c(C(N)=O)cc2ccc(NC3(C)CCC3)cc21 (3D coordinates assigned)
COC(=O)n1c(C(N)=O)cc2ccc(NC3(C)CCC3)cc21 (nonaromatic ring conformer: 140.72029219949468 kcal/mol)

>  <smiles>  (21) 
COC(=O)n1c(C(N)=O)cc2ccc(NC3(C)CCC3)cc21

>  <score_type>  (21) 
oracle

>  <origin>  (21) 
adg

>  <m_score__min__energy>  (21) 
-7.71

>  <m_primary>  (21) 
energy

$$$$
22:0
     RDKit          3D

 33 34  0  0  0  0  0  0  0  0999 V2000
  146.4370  153.4270  136.5690 N   0  0  0  0  0  0  0  0  0  0  0  0
  145.9010  153.7730  135.2940 C   0  0  0  0  0  0  0  0  0  0  0  0
  145.1040  152.9800  134.7250 O   0  0  0  0  0  0  0  0  0  0  0  0
  146.3010  155.0230  134.6120 C   0  0  0  0  0  0  0  0  0  0  0  0
  145.6530  156.2420  134.7990 C   0  0  0  0  0  0  0  0  0  0  0  0
  146.2790  157.1240  133.9470 C   0  0  0  0  0  0  0  0  0  0  0  0
  146.0510  158.4810  133.7330 C   0  0  0  0  0  0  0  0  0  0  0  0
  146.8770  159.1500  132.8130 C   0  0  0  0  0  0  0  0  0  0  0  0
  147.9090  158.4550  132.1390 C   0  0  0  0  0  0  0  0  0  0  0  0
  148.7560  159.1540  131.2100 C   0  0  0  0  0  0  0  0  0  0  0  0
  149.4670  159.7380  130.4310 C   0  0  0  0  0  0  0  0  0  0  0  0
  150.3310  160.4490  129.4850 C   0  0  0  0  0  0  0  0  0  0  0  0
  149.6150  161.4810  128.8650 O   0  0  0  0  0  0  0  0  0  0  0  0
  148.1140  157.0820  132.3800 C   0  0  0  0  0  0  0  0  0  0  0  0
  147.2640  156.4370  133.2850 C   0  0  0  0  0  0  0  0  0  0  0  0
  147.2890  155.1470  133.6820 N   0  0  0  0  0  0  0  0  0  0  0  0
  148.2300  154.1480  133.2600 C   0  0  0  0  0  0  0  0  0  0  0  0
  149.3440  154.5010  132.7860 O   0  0  0  0  0  0  0  0  0  0  0  0
  147.8990  152.7600  133.3680 N   0  0  0  0  0  0  0  0  0  0  0  0
  148.9690  151.5030  132.7730 P   0  0  1  0  0  0  0  0  0  0  0  0
  149.9010  151.0670  133.8800 O   0  0  0  0  0  0  0  0  0  0  0  0
  148.0530  150.1800  132.2550 O   0  0  0  0  0  0  0  0  0  0  0  0
  149.8740  152.0990  131.4750 O   0  0  0  0  0  0  0  0  0  0  0  0
  145.9900  153.7680  137.4490 H   0  0  0  0  0  0  0  0  0  0  0  0
  144.8179  156.4548  135.4826 H   0  0  0  0  0  0  0  0  0  0  0  0
  145.2497  159.0127  134.2671 H   0  0  0  0  0  0  0  0  0  0  0  0
  146.7201  160.2207  132.6158 H   0  0  0  0  0  0  0  0  0  0  0  0
  151.1897  160.8746  130.0249 H   0  0  0  0  0  0  0  0  0  0  0  0
  150.6847  159.7437  128.7185 H   0  0  0  0  0  0  0  0  0  0  0  0
  148.7440  161.5490  129.3370 H   0  0  0  0  0  0  0  0  0  0  0  0
  148.9197  156.5327  131.8710 H   0  0  0  0  0  0  0  0  0  0  0  0
  147.0060  152.4770  133.8290 H   0  0  0  0  0  0  0  0  0  0  0  0
  150.3880  152.8570  131.8520 H   0  0  0  0  0  0  0  0  0  0  0  0
  1  2  1  0
  2  3  2  0
  2  4  1  0
  4  5  2  0
  5  6  1  0
  6  7  2  0
  7  8  1  0
  8  9  2  0
  9 10  1  0
 10 11  3  0
 11 12  1  0
 12 13  1  0
  9 14  1  0
 14 15  2  0
 15 16  1  0
 16 17  1  0
 17 18  2  0
 17 19  1  0
 19 20  1  0
 20 21  2  0
 20 22  1  6
 20 23  1  0
 16  4  1  0
 15  6  1  0
  1 24  1  0
  5 25  1  0
  7 26  1  0
  8 27  1  0
 12 28  1  0
 12 29  1  0
 13 30  1  0
 14 31  1  0
 19 32  1  0
 23 33  1  0
M  CHG  2   1  -1  22  -1
M  END
>  <UniqueID>  (22) 
22

>  <SMILES>  (22) 
[NH-]C(=O)c1cc2ccc(C#CCO)cc2n1C(=O)N[P@@](=O)([O-])O

>  <Energy>  (22) 
63.29101492129673

>  <Genealogy>  (22) 
[NH-]C(=O)c1cc2ccc(C#CCO)cc2n1C(=O)NP(=O)([O-])O (protonated)
[NH-]C(=O)c1cc2ccc(C#CCO)cc2n1C(=O)N[P@@](=O)([O-])O (chirality)
[NH-]C(=O)c1cc2ccc(C#CCO)cc2n1C(=O)N[P@@](=O)([O-])O (3D coordinates assigned)
[NH-]C(=O)c1cc2ccc(C#CCO)cc2n1C(=O)N[P@@](=O)([O-])O (optimized conformer: 63.29101492129673 kcal/mol)

>  <smiles>  (22) 
NC(=O)c1cc2ccc(C#CCO)cc2n1C(=O)NP(=O)(O)O

>  <score_type>  (22) 
oracle

>  <origin>  (22) 
adg

>  <m_score__min__energy>  (22) 
-7.0899999999999999

>  <m_primary>  (22) 
energy

$$$$
23:0
     RDKit          3D

 63 64  0  0  0  0  0  0  0  0999 V2000
  138.3840  158.7750  131.0930 C   0  0  0  0  0  0  0  0  0  0  0  0
  138.9820  158.3430  132.0470 C   0  0  0  0  0  0  0  0  0  0  0  0
  139.6930  157.8270  133.1860 C   0  0  0  0  0  0  0  0  0  0  0  0
  139.9520  158.6670  134.2940 C   0  0  0  0  0  0  0  0  0  0  0  0
  140.6530  158.1780  135.4090 C   0  0  0  0  0  0  0  0  0  0  0  0
  141.0710  156.8500  135.3860 C   0  0  0  0  0  0  0  0  0  0  0  0
  141.7850  156.1300  136.3160 C   0  0  0  0  0  0  0  0  0  0  0  0
  141.9290  154.8570  135.7660 C   0  0  0  0  0  0  0  0  0  0  0  0
  142.5660  153.7310  136.4760 C   0  0  0  0  0  0  0  0  0  0  0  0
  143.9600  153.7760  136.7770 N   0  0  0  0  0  0  0  0  0  0  0  0
  141.8850  152.7440  136.8570 O   0  0  0  0  0  0  0  0  0  0  0  0
  141.3340  154.7940  134.5420 N   0  0  0  0  0  0  0  0  0  0  0  0
  141.3310  153.6910  133.6220 C   0  0  0  0  0  0  0  0  0  0  0  0
  140.5680  153.7120  132.6180 O   0  0  0  0  0  0  0  0  0  0  0  0
  142.2020  152.6130  133.8250 O   0  0  0  0  0  0  0  0  0  0  0  0
  143.6090  152.7100  133.6170 C   0  0  0  0  0  0  0  0  0  0  0  0
  143.8860  152.9410  132.2390 O   0  0  0  0  0  0  0  0  0  0  0  0
  144.3400  154.1710  131.7530 C   0  0  0  0  0  0  0  0  0  0  0  0
  144.3120  154.4260  130.5180 O   0  0  0  0  0  0  0  0  0  0  0  0
  144.8190  155.2100  132.7140 C   0  0  0  0  0  0  0  0  0  0  0  0
  143.7900  156.3360  132.8370 C   0  0  0  0  0  0  0  0  0  0  0  0
  144.2580  157.3630  133.8160 C   0  0  0  0  0  0  0  0  0  0  0  0
  145.3340  157.1840  134.4490 O   0  0  0  0  0  0  0  0  0  0  0  0
  143.4680  158.4920  134.0560 O   0  0  0  0  0  0  0  0  0  0  0  0
  143.6810  159.7330  133.3960 C   0  0  0  0  0  0  0  0  0  0  0  0
  145.1060  160.1500  133.5550 C   0  0  0  0  0  0  0  0  0  0  0  0
  145.3800  161.1830  134.2250 O   0  0  0  0  0  0  0  0  0  0  0  0
  146.1140  159.4200  132.9150 O   0  0  0  0  0  0  0  0  0  0  0  0
  147.1940  160.0170  132.1950 C   0  0  0  0  0  0  0  0  0  0  0  0
  148.5450  159.5010  132.7060 C   0  0  0  0  0  0  0  0  0  0  0  0
  148.7820  158.0210  132.3490 C   0  0  0  0  0  0  0  0  0  0  0  0
  147.8840  157.1080  133.0980 N   0  0  0  0  0  0  0  0  0  0  0  0
  148.1790  157.1880  134.5390 C   0  0  0  0  0  0  0  0  0  0  0  0
  148.0260  155.7110  132.6420 C   0  0  0  0  0  0  0  0  0  0  0  0
  140.8100  156.0210  134.3240 C   0  0  0  0  0  0  0  0  0  0  0  0
  140.1290  156.4870  133.1930 C   0  0  0  0  0  0  0  0  0  0  0  0
  137.8385  159.1690  130.2228 H   0  0  0  0  0  0  0  0  0  0  0  0
  139.6023  159.7099  134.2827 H   0  0  0  0  0  0  0  0  0  0  0  0
  140.8651  158.8243  136.2735 H   0  0  0  0  0  0  0  0  0  0  0  0
  142.1621  156.4836  137.2870 H   0  0  0  0  0  0  0  0  0  0  0  0
  144.3410  154.4800  137.4480 H   0  0  0  0  0  0  0  0  0  0  0  0
  144.0081  153.5440  134.2130 H   0  0  0  0  0  0  0  0  0  0  0  0
  144.0842  151.7674  133.9264 H   0  0  0  0  0  0  0  0  0  0  0  0
  144.9714  154.7486  133.7008 H   0  0  0  0  0  0  0  0  0  0  0  0
  145.7658  155.6300  132.3436 H   0  0  0  0  0  0  0  0  0  0  0  0
  143.6508  156.8091  131.8537 H   0  0  0  0  0  0  0  0  0  0  0  0
  142.8380  155.9131  133.1905 H   0  0  0  0  0  0  0  0  0  0  0  0
  143.4496  159.6226  132.3263 H   0  0  0  0  0  0  0  0  0  0  0  0
  143.0262  160.4980  133.8388 H   0  0  0  0  0  0  0  0  0  0  0  0
  147.0949  159.7705  131.1276 H   0  0  0  0  0  0  0  0  0  0  0  0
  147.1553  161.1063  132.3434 H   0  0  0  0  0  0  0  0  0  0  0  0
  149.3468  160.1055  132.2567 H   0  0  0  0  0  0  0  0  0  0  0  0
  148.5429  159.5851  133.8028 H   0  0  0  0  0  0  0  0  0  0  0  0
  148.6057  157.8848  131.2718 H   0  0  0  0  0  0  0  0  0  0  0  0
  149.8179  157.7716  132.6225 H   0  0  0  0  0  0  0  0  0  0  0  0
  146.8880  157.4050  132.9610 H   0  0  0  0  0  0  0  0  0  0  0  0
  147.2733  156.9424  135.1129 H   0  0  0  0  0  0  0  0  0  0  0  0
  148.9771  156.4739  134.7901 H   0  0  0  0  0  0  0  0  0  0  0  0
  148.5069  158.2075  134.7901 H   0  0  0  0  0  0  0  0  0  0  0  0
  148.0937  155.0454  133.5151 H   0  0  0  0  0  0  0  0  0  0  0  0
  147.1515  155.4326  132.0356 H   0  0  0  0  0  0  0  0  0  0  0  0
  148.9386  155.6142  132.0356 H   0  0  0  0  0  0  0  0  0  0  0  0
  139.9397  155.8260  132.3344 H   0  0  0  0  0  0  0  0  0  0  0  0
  1  2  3  0
  2  3  1  0
  3  4  2  0
  4  5  1  0
  5  6  2  0
  6  7  1  0
  7  8  2  0
  8  9  1  0
  9 10  1  0
  9 11  2  0
  8 12  1  0
 12 13  1  0
 13 14  2  0
 13 15  1  0
 15 16  1  0
 16 17  1  0
 17 18  1  0
 18 19  2  0
 18 20  1  0
 20 21  1  0
 21 22  1  0
 22 23  2  0
 22 24  1  0
 24 25  1  0
 25 26  1  0
 26 27  2  0
 26 28  1  0
 28 29  1  0
 29 30  1  0
 30 31  1  0
 31 32  1  0
 32 33  1  0
 32 34  1  0
 12 35  1  0
 35 36  2  0
 36  3  1  0
 35  6  1  0
  1 37  1  0
  4 38  1  0
  5 39  1  0
  7 40  1  0
 10 41  1  0
 16 42  1  0
 16 43  1  0
 20 44  1  0
 20 45  1  0
 21 46  1  0
 21 47  1  0
 25 48  1  0
 25 49  1  0
 29 50  1  0
 29 51  1  0
 30 52  1  0
 30 53  1  0
 31 54  1  0
 31 55  1  0
 32 56  1  0
 33 57  1  0
 33 58  1  0
 33 59  1  0
 34 60  1  0
 34 61  1  0
 34 62  1  0
 36 63  1  0
M  CHG  2  10  -1  32   1
M  END
>  <UniqueID>  (23) 
23

>  <SMILES>  (23) 
C#Cc1ccc2cc(C([NH-])=O)n(C(=O)OCOC(=O)CCC(=O)OCC(=O)OCCC[NH+](C)C)c2c1

>  <Energy>  (23) 
84.790061204942

>  <Genealogy>  (23) 
C#Cc1ccc2cc(C([NH-])=O)n(C(=O)OCOC(=O)CCC(=O)OCC(=O)OCCC[NH+](C)C)c2c1 (protonated)
C#Cc1ccc2cc(C([NH-])=O)n(C(=O)OCOC(=O)CCC(=O)OCC(=O)OCCC[NH+](C)C)c2c1 (3D coordinates assigned)
C#Cc1ccc2cc(C([NH-])=O)n(C(=O)OCOC(=O)CCC(=O)OCC(=O)OCCC[NH+](C)C)c2c1 (optimized conformer: 84.790061204942 kcal/mol)

>  <smiles>  (23) 
C#Cc1ccc2cc(C(N)=O)n(C(=O)OCOC(=O)CCC(=O)OCC(=O)OCCCN(C)C)c2c1

>  <score_type>  (23) 
oracle

>  <origin>  (23) 
adg

>  <m_score__min__energy>  (23) 
-6.9500000000000002

>  <m_primary>  (23) 
energy

$$$$
24:0
     RDKit          3D

 59 63  0  0  0  0  0  0  0  0999 V2000
  145.8640  161.0310  133.7820 C   0  0  0  0  0  0  0  0  0  0  0  0
  145.9040  159.8530  132.9900 O   0  0  0  0  0  0  0  0  0  0  0  0
  146.7510  159.7230  131.8810 C   0  0  0  0  0  0  0  0  0  0  0  0
  146.6050  160.4860  130.8870 O   0  0  0  0  0  0  0  0  0  0  0  0
  147.8050  158.7420  131.8840 N   0  0  0  0  0  0  0  0  0  0  0  0
  149.1310  158.9500  131.6360 C   0  0  0  0  0  0  0  0  0  0  0  0
  149.7260  160.1890  131.0950 C   0  0  0  0  0  0  0  0  0  0  0  0
  149.1640  161.4600  131.4020 N   0  0  0  0  0  0  0  0  0  0  0  0
  150.7000  160.1200  130.3000 O   0  0  0  0  0  0  0  0  0  0  0  0
  149.8660  157.7930  131.8700 C   0  0  0  0  0  0  0  0  0  0  0  0
  148.9440  156.8540  132.2680 C   0  0  0  0  0  0  0  0  0  0  0  0
  149.1400  155.5370  132.6700 C   0  0  0  0  0  0  0  0  0  0  0  0
  148.0180  154.8030  133.0850 C   0  0  0  0  0  0  0  0  0  0  0  0
  146.7250  155.3850  133.0650 C   0  0  0  0  0  0  0  0  0  0  0  0
  145.5530  154.5650  133.4440 C   0  0  0  0  0  0  0  0  0  0  0  0
  144.4470  155.1320  134.0940 C   0  0  0  0  0  0  0  0  0  0  0  0
  143.3570  154.3630  134.3540 N   0  0  0  0  0  0  0  0  0  0  0  0
  143.3130  153.0470  134.0130 C   0  0  0  0  0  0  0  0  0  0  0  0
  142.0940  152.2490  134.2790 C   0  0  0  0  0  0  0  0  0  0  0  0
  141.5920  152.2770  135.4370 O   0  0  0  0  0  0  0  0  0  0  0  0
  141.4660  151.4510  133.2410 N   0  0  0  0  0  0  0  0  0  0  0  0
  140.1730  151.9350  132.7080 C   0  0  0  0  0  0  0  0  0  0  0  0
  139.3070  150.8580  132.0120 C   0  0  2  0  0  0  0  0  0  0  0  0
  139.0770  149.6250  132.8940 C   0  0  0  0  0  0  0  0  0  0  0  0
  140.3610  148.7980  133.0810 C   0  0  0  0  0  0  0  0  0  0  0  0
  141.4750  149.1930  132.0840 C   0  0  2  0  0  0  0  0  0  0  0  0
  142.2760  150.4220  132.5570 C   0  0  0  0  0  0  0  0  0  0  0  0
  140.9600  149.4350  130.7200 N   0  0  0  0  0  0  0  0  0  0  0  0
  140.6180  148.1870  130.0180 C   0  0  0  0  0  0  0  0  0  0  0  0
  139.8750  150.4430  130.6360 C   0  0  0  0  0  0  0  0  0  0  0  0
  144.4350  152.4720  133.4060 C   0  0  0  0  0  0  0  0  0  0  0  0
  145.5140  153.2450  133.1170 N   0  0  0  0  0  0  0  0  0  0  0  0
  146.5680  156.7360  132.6710 C   0  0  0  0  0  0  0  0  0  0  0  0
  147.7060  157.4480  132.2680 C   0  0  0  0  0  0  0  0  0  0  0  0
  145.8733  160.7571  134.8473 H   0  0  0  0  0  0  0  0  0  0  0  0
  146.7415  161.6547  133.5561 H   0  0  0  0  0  0  0  0  0  0  0  0
  144.9462  161.5937  133.5561 H   0  0  0  0  0  0  0  0  0  0  0  0
  148.1240  161.5770  131.4780 H   0  0  0  0  0  0  0  0  0  0  0  0
  150.9521  157.6580  131.7602 H   0  0  0  0  0  0  0  0  0  0  0  0
  150.1428  155.0849  132.6629 H   0  0  0  0  0  0  0  0  0  0  0  0
  148.1429  153.7657  133.4293 H   0  0  0  0  0  0  0  0  0  0  0  0
  144.4617  156.1910  134.3911 H   0  0  0  0  0  0  0  0  0  0  0  0
  139.5930  152.3502  133.5453 H   0  0  0  0  0  0  0  0  0  0  0  0
  140.4185  152.6781  131.9350 H   0  0  0  0  0  0  0  0  0  0  0  0
  138.3289  151.3320  131.8426 H   0  0  0  0  0  0  0  0  0  0  0  0
  138.7219  149.9564  133.8810 H   0  0  0  0  0  0  0  0  0  0  0  0
  138.3330  148.9864  132.3953 H   0  0  0  0  0  0  0  0  0  0  0  0
  140.7334  148.9527  134.1044 H   0  0  0  0  0  0  0  0  0  0  0  0
  140.1074  147.7438  132.8957 H   0  0  0  0  0  0  0  0  0  0  0  0
  142.1503  148.3254  132.0487 H   0  0  0  0  0  0  0  0  0  0  0  0
  143.0549  150.0780  133.2534 H   0  0  0  0  0  0  0  0  0  0  0  0
  142.6879  150.8954  131.6536 H   0  0  0  0  0  0  0  0  0  0  0  0
  140.4021  147.3992  130.7548 H   0  0  0  0  0  0  0  0  0  0  0  0
  139.7320  148.3520  129.3874 H   0  0  0  0  0  0  0  0  0  0  0  0
  141.4644  147.8773  129.3874 H   0  0  0  0  0  0  0  0  0  0  0  0
  140.2720  151.3404  130.1388 H   0  0  0  0  0  0  0  0  0  0  0  0
  139.0502  149.9823  130.0726 H   0  0  0  0  0  0  0  0  0  0  0  0
  144.4432  151.3990  133.1640 H   0  0  0  0  0  0  0  0  0  0  0  0
  145.5777  157.2147  132.6810 H   0  0  0  0  0  0  0  0  0  0  0  0
  1  2  1  0
  2  3  1  0
  3  4  2  0
  3  5  1  0
  5  6  1  0
  6  7  1  0
  7  8  1  0
  7  9  2  0
  6 10  2  0
 10 11  1  0
 11 12  2  0
 12 13  1  0
 13 14  2  0
 14 15  1  0
 15 16  2  0
 16 17  1  0
 17 18  2  0
 18 19  1  0
 19 20  2  0
 19 21  1  0
 21 22  1  0
 22 23  1  0
 23 24  1  0
 24 25  1  0
 25 26  1  0
 26 27  1  0
 26 28  1  0
 28 29  1  0
 28 30  1  0
 18 31  1  0
 31 32  2  0
 14 33  1  0
 33 34  2  0
 34  5  1  0
 34 11  1  0
 32 15  1  0
 27 21  1  0
 30 23  1  0
  1 35  1  0
  1 36  1  0
  1 37  1  0
  8 38  1  0
 10 39  1  0
 12 40  1  0
 13 41  1  0
 16 42  1  0
 22 43  1  0
 22 44  1  0
 23 45  1  6
 24 46  1  0
 24 47  1  0
 25 48  1  0
 25 49  1  0
 26 50  1  6
 27 51  1  0
 27 52  1  0
 29 53  1  0
 29 54  1  0
 29 55  1  0
 30 56  1  0
 30 57  1  0
 31 58  1  0
 33 59  1  0
M  CHG  1   8  -1
M  END
>  <UniqueID>  (24) 
24

>  <SMILES>  (24) 
COC(=O)n1c(C([NH-])=O)cc2ccc(-c3cnc(C(=O)N4C[C@@H]5CC[C@H](C4)N(C)C5)cn3)cc21

>  <Energy>  (24) 
129.4847165809787

>  <Genealogy>  (24) 
COC(=O)n1c(C([NH-])=O)cc2ccc(-c3cnc(C(=O)N4CC5CCC(C4)N(C)C5)cn3)cc21 (protonated)
COC(=O)n1c(C([NH-])=O)cc2ccc(-c3cnc(C(=O)N4C[C@@H]5CC[C@H](C4)N(C)C5)cn3)cc21 (chirality)
COC(=O)n1c(C([NH-])=O)cc2ccc(-c3cnc(C(=O)N4C[C@@H]5CC[C@H](C4)N(C)C5)cn3)cc21 (3D coordinates assigned)
COC(=O)n1c(C([NH-])=O)cc2ccc(-c3cnc(C(=O)N4C[C@@H]5CC[C@H](C4)N(C)C5)cn3)cc21 (nonaromatic ring conformer: 129.4847165809787 kcal/mol)

>  <smiles>  (24) 
COC(=O)n1c(C(N)=O)cc2ccc(-c3cnc(C(=O)N4CC5CCC(C4)N(C)C5)cn3)cc21

>  <score_type>  (24) 
oracle

>  <origin>  (24) 
adg

>  <m_score__min__energy>  (24) 
-8

>  <m_primary>  (24) 
energy

$$$$
25:0
     RDKit          3D

 33 35  0  0  0  0  0  0  0  0999 V2000
  149.6060  151.5890  133.6140 C   0  0  0  0  0  0  0  0  0  0  0  0
  148.9860  152.4090  132.4790 C   0  0  0  0  0  0  0  0  0  0  0  0
  147.8210  153.2520  132.8950 C   0  0  0  0  0  0  0  0  0  0  0  0
  148.4810  154.5510  132.6660 N   0  0  0  0  0  0  0  0  0  0  0  0
  148.1540  155.9370  132.7830 C   0  0  0  0  0  0  0  0  0  0  0  0
  149.1590  156.9160  132.6050 C   0  0  0  0  0  0  0  0  0  0  0  0
  148.8490  158.2810  132.7030 C   0  0  0  0  0  0  0  0  0  0  0  0
  147.5320  158.6330  132.9880 C   0  0  0  0  0  0  0  0  0  0  0  0
  146.9590  159.8760  133.1090 C   0  0  0  0  0  0  0  0  0  0  0  0
  145.6140  159.6390  133.3830 C   0  0  0  0  0  0  0  0  0  0  0  0
  144.6390  160.7210  133.6440 C   0  0  0  0  0  0  0  0  0  0  0  0
  143.2530  160.5490  133.3620 N   0  0  0  0  0  0  0  0  0  0  0  0
  145.0310  161.7990  134.1650 O   0  0  0  0  0  0  0  0  0  0  0  0
  145.3610  158.2990  133.4260 N   0  0  0  0  0  0  0  0  0  0  0  0
  144.0830  157.6660  133.6020 C   0  0  0  0  0  0  0  0  0  0  0  0
  143.1870  157.7560  132.7210 O   0  0  0  0  0  0  0  0  0  0  0  0
  146.5480  157.6960  133.1800 C   0  0  0  0  0  0  0  0  0  0  0  0
  146.8300  156.3270  133.0680 C   0  0  0  0  0  0  0  0  0  0  0  0
  149.6400  153.7380  132.2530 C   0  0  0  0  0  0  0  0  0  0  0  0
  149.2909  152.0058  134.5820 H   0  0  0  0  0  0  0  0  0  0  0  0
  149.2699  150.5444  133.5377 H   0  0  0  0  0  0  0  0  0  0  0  0
  150.7027  151.6278  133.5377 H   0  0  0  0  0  0  0  0  0  0  0  0
  148.9310  151.6122  131.7226 H   0  0  0  0  0  0  0  0  0  0  0  0
  146.9393  153.1045  132.2540 H   0  0  0  0  0  0  0  0  0  0  0  0
  147.4029  153.0712  133.8963 H   0  0  0  0  0  0  0  0  0  0  0  0
  150.1916  156.6050  132.3881 H   0  0  0  0  0  0  0  0  0  0  0  0
  149.6226  159.0496  132.5591 H   0  0  0  0  0  0  0  0  0  0  0  0
  147.4571  160.8518  133.0103 H   0  0  0  0  0  0  0  0  0  0  0  0
  142.9350  159.9040  132.6060 H   0  0  0  0  0  0  0  0  0  0  0  0
  143.8840  157.0940  134.5203 H   0  0  0  0  0  0  0  0  0  0  0  0
  146.0372  155.5758  133.1994 H   0  0  0  0  0  0  0  0  0  0  0  0
  149.9204  153.9006  131.2019 H   0  0  0  0  0  0  0  0  0  0  0  0
  150.5931  153.9231  132.7700 H   0  0  0  0  0  0  0  0  0  0  0  0
  1  2  1  0
  2  3  1  0
  3  4  1  0
  4  5  1  0
  5  6  2  0
  6  7  1  0
  7  8  2  0
  8  9  1  0
  9 10  2  0
 10 11  1  0
 11 12  1  0
 11 13  2  0
 10 14  1  0
 14 15  1  0
 15 16  2  0
 14 17  1  0
 17 18  2  0
  4 19  1  0
 19  2  1  0
 18  5  1  0
 17  8  1  0
  1 20  1  0
  1 21  1  0
  1 22  1  0
  2 23  1  0
  3 24  1  0
  3 25  1  0
  6 26  1  0
  7 27  1  0
  9 28  1  0
 12 29  1  0
 15 30  1  0
 18 31  1  0
 19 32  1  0
 19 33  1  0
M  CHG  1  12  -1
M  END
>  <UniqueID>  (25) 
25

>  <SMILES>  (25) 
CC1CN(c2ccc3cc(C([NH-])=O)n(C=O)c3c2)C1

>  <Energy>  (25) 
114.85192822824904

>  <Genealogy>  (25) 
CC1CN(c2ccc3cc(C([NH-])=O)n(C=O)c3c2)C1 (protonated)
CC1CN(c2ccc3cc(C([NH-])=O)n(C=O)c3c2)C1 (3D coordinates assigned)
CC1CN(c2ccc3cc(C([NH-])=O)n(C=O)c3c2)C1 (nonaromatic ring conformer: 114.85192822824904 kcal/mol)

>  <smiles>  (25) 
CC1CN(c2ccc3cc(C(N)=O)n(C=O)c3c2)C1

>  <score_type>  (25) 
oracle

>  <origin>  (25) 
adg

>  <m_score__min__energy>  (25) 
-6.5599999999999996

>  <m_primary>  (25) 
energy

$$$$
26:0
     RDKit          3D

 30 31  0  0  0  0  0  0  0  0999 V2000
  147.7380  154.5850  134.1130 C   0  0  0  0  0  0  0  0  0  0  0  0
  147.3120  155.9410  134.1080 O   0  0  0  0  0  0  0  0  0  0  0  0
  147.1530  156.6780  132.9290 C   0  0  0  0  0  0  0  0  0  0  0  0
  147.1850  156.0980  131.8090 O   0  0  0  0  0  0  0  0  0  0  0  0
  146.9780  158.1020  132.9980 N   0  0  0  0  0  0  0  0  0  0  0  0
  147.9060  159.0740  132.7600 C   0  0  0  0  0  0  0  0  0  0  0  0
  149.2730  158.8610  132.2410 C   0  0  0  0  0  0  0  0  0  0  0  0
  149.8120  157.5420  132.1840 N   0  0  0  0  0  0  0  0  0  0  0  0
  149.9850  159.8340  131.8780 O   0  0  0  0  0  0  0  0  0  0  0  0
  147.3610  160.3350  132.9930 C   0  0  0  0  0  0  0  0  0  0  0  0
  146.0610  160.1060  133.3780 C   0  0  0  0  0  0  0  0  0  0  0  0
  145.0600  161.0060  133.7330 C   0  0  0  0  0  0  0  0  0  0  0  0
  143.8100  160.4880  134.1090 C   0  0  0  0  0  0  0  0  0  0  0  0
  143.5860  159.0890  134.1400 C   0  0  0  0  0  0  0  0  0  0  0  0
  142.2350  158.5490  134.5270 C   0  0  2  0  0  0  0  0  0  0  0  0
  141.7780  157.6670  133.5620 F   0  0  0  0  0  0  0  0  0  0  0  0
  141.2600  159.6740  134.6840 C   0  0  0  0  0  0  0  0  0  0  0  0
  140.9810  160.1130  135.8310 O   0  0  0  0  0  0  0  0  0  0  0  0
  140.6990  160.2750  133.5630 O   0  0  0  0  0  0  0  0  0  0  0  0
  144.6240  158.2060  133.7620 C   0  0  0  0  0  0  0  0  0  0  0  0
  145.8540  158.7510  133.3740 C   0  0  0  0  0  0  0  0  0  0  0  0
  147.8468  154.2387  135.1514 H   0  0  0  0  0  0  0  0  0  0  0  0
  146.9916  153.9643  133.5958 H   0  0  0  0  0  0  0  0  0  0  0  0
  148.7053  154.5027  133.5958 H   0  0  0  0  0  0  0  0  0  0  0  0
  149.2480  156.7470  131.8090 H   0  0  0  0  0  0  0  0  0  0  0  0
  147.8642  161.3078  132.8906 H   0  0  0  0  0  0  0  0  0  0  0  0
  145.2427  162.0906  133.7194 H   0  0  0  0  0  0  0  0  0  0  0  0
  142.9960  161.1756  134.3824 H   0  0  0  0  0  0  0  0  0  0  0  0
  142.3296  158.0153  135.4842 H   0  0  0  0  0  0  0  0  0  0  0  0
  144.4688  157.1171  133.7725 H   0  0  0  0  0  0  0  0  0  0  0  0
  1  2  1  0
  2  3  1  0
  3  4  2  0
  3  5  1  0
  5  6  1  0
  6  7  1  0
  7  8  1  0
  7  9  2  0
  6 10  2  0
 10 11  1  0
 11 12  2  0
 12 13  1  0
 13 14  2  0
 14 15  1  0
 15 16  1  0
 15 17  1  0
 17 18  2  0
 17 19  1  0
 14 20  1  0
 20 21  2  0
 21  5  1  0
 21 11  1  0
  1 22  1  0
  1 23  1  0
  1 24  1  0
  8 25  1  0
 10 26  1  0
 12 27  1  0
 13 28  1  0
 15 29  1  1
 20 30  1  0
M  CHG  2   8  -1  19  -1
M  END
>  <UniqueID>  (26) 
26

>  <SMILES>  (26) 
COC(=O)n1c(C([NH-])=O)cc2ccc([C@H](F)C(=O)[O-])cc21

>  <Energy>  (26) 
66.17925761591484

>  <Genealogy>  (26) 
COC(=O)n1c(C([NH-])=O)cc2ccc(C(F)C(=O)[O-])cc21 (protonated)
COC(=O)n1c(C([NH-])=O)cc2ccc([C@H](F)C(=O)[O-])cc21 (chirality)
COC(=O)n1c(C([NH-])=O)cc2ccc([C@H](F)C(=O)[O-])cc21 (3D coordinates assigned)
COC(=O)n1c(C([NH-])=O)cc2ccc([C@H](F)C(=O)[O-])cc21 (optimized conformer: 66.17925761591484 kcal/mol)

>  <smiles>  (26) 
COC(=O)n1c(C(N)=O)cc2ccc(C(F)C(=O)O)cc21

>  <score_type>  (26) 
oracle

>  <origin>  (26) 
adg

>  <m_score__min__energy>  (26) 
-6.1699999999999999

>  <m_primary>  (26) 
energy

$$$$
27:0
     RDKit          3D

 37 38  0  0  0  0  0  0  0  0999 V2000
  139.5140  159.9760  131.7780 C   0  0  0  0  0  0  0  0  0  0  0  0
  140.1030  159.1460  132.8230 N   0  0  0  0  0  0  0  0  0  0  0  0
  139.3870  158.0470  133.3990 C   0  0  0  0  0  0  0  0  0  0  0  0
  138.1960  157.8130  133.0500 O   0  0  0  0  0  0  0  0  0  0  0  0
  140.0350  157.1840  134.4400 C   0  0  0  0  0  0  0  0  0  0  0  0
  141.3030  156.5250  133.8920 C   0  0  0  0  0  0  0  0  0  0  0  0
  142.1750  157.5140  133.3470 O   0  0  0  0  0  0  0  0  0  0  0  0
  143.5600  157.5120  133.5590 C   0  0  0  0  0  0  0  0  0  0  0  0
  144.1670  156.4300  133.7950 O   0  0  0  0  0  0  0  0  0  0  0  0
  144.3060  158.7330  133.4740 N   0  0  0  0  0  0  0  0  0  0  0  0
  143.8850  160.0050  133.7530 C   0  0  0  0  0  0  0  0  0  0  0  0
  142.5210  160.4170  134.1490 C   0  0  0  0  0  0  0  0  0  0  0  0
  141.7980  159.7240  135.1690 N   0  0  0  0  0  0  0  0  0  0  0  0
  141.9670  161.3730  133.5410 O   0  0  0  0  0  0  0  0  0  0  0  0
  144.9600  160.8910  133.7160 C   0  0  0  0  0  0  0  0  0  0  0  0
  146.0590  160.1230  133.4050 C   0  0  0  0  0  0  0  0  0  0  0  0
  147.3950  160.4870  133.2680 C   0  0  0  0  0  0  0  0  0  0  0  0
  148.3300  159.4710  132.9870 C   0  0  0  0  0  0  0  0  0  0  0  0
  147.9120  158.1240  132.8580 C   0  0  0  0  0  0  0  0  0  0  0  0
  148.8750  157.0990  132.6170 N   0  0  0  0  0  0  0  0  0  0  0  0
  146.5470  157.7930  132.9980 C   0  0  0  0  0  0  0  0  0  0  0  0
  145.6390  158.8250  133.2780 C   0  0  0  0  0  0  0  0  0  0  0  0
  138.9360  160.7905  132.2389 H   0  0  0  0  0  0  0  0  0  0  0  0
  140.3134  160.4015  131.1535 H   0  0  0  0  0  0  0  0  0  0  0  0
  138.8485  159.3619  131.1535 H   0  0  0  0  0  0  0  0  0  0  0  0
  141.0630  159.3780  133.1640 H   0  0  0  0  0  0  0  0  0  0  0  0
  140.2986  157.8047  135.3090 H   0  0  0  0  0  0  0  0  0  0  0  0
  139.3270  156.3944  134.7320 H   0  0  0  0  0  0  0  0  0  0  0  0
  141.8184  155.9950  134.7065 H   0  0  0  0  0  0  0  0  0  0  0  0
  141.0251  155.8148  133.0993 H   0  0  0  0  0  0  0  0  0  0  0  0
  141.6830  158.6860  135.1350 H   0  0  0  0  0  0  0  0  0  0  0  0
  144.9354  161.9757  133.8972 H   0  0  0  0  0  0  0  0  0  0  0  0
  147.7113  161.5350  133.3757 H   0  0  0  0  0  0  0  0  0  0  0  0
  149.3932  159.7261  132.8668 H   0  0  0  0  0  0  0  0  0  0  0  0
  149.5990  156.8640  133.3330 H   0  0  0  0  0  0  0  0  0  0  0  0
  148.9020  156.5990  131.7000 H   0  0  0  0  0  0  0  0  0  0  0  0
  146.2043  156.7533  132.8904 H   0  0  0  0  0  0  0  0  0  0  0  0
  1  2  1  0
  2  3  1  0
  3  4  2  0
  3  5  1  0
  5  6  1  0
  6  7  1  0
  7  8  1  0
  8  9  2  0
  8 10  1  0
 10 11  1  0
 11 12  1  0
 12 13  1  0
 12 14  2  0
 11 15  2  0
 15 16  1  0
 16 17  2  0
 17 18  1  0
 18 19  2  0
 19 20  1  0
 19 21  1  0
 21 22  2  0
 22 10  1  0
 22 16  1  0
  1 23  1  0
  1 24  1  0
  1 25  1  0
  2 26  1  0
  5 27  1  0
  5 28  1  0
  6 29  1  0
  6 30  1  0
 13 31  1  0
 15 32  1  0
 17 33  1  0
 18 34  1  0
 20 35  1  0
 20 36  1  0
 21 37  1  0
M  CHG  1  13  -1
M  END
>  <UniqueID>  (27) 
27

>  <SMILES>  (27) 
CNC(=O)CCOC(=O)n1c(C([NH-])=O)cc2ccc(N)cc21

>  <Energy>  (27) 
70.60464242251064

>  <Genealogy>  (27) 
CNC(=O)CCOC(=O)n1c(C([NH-])=O)cc2ccc(N)cc21 (protonated)
CNC(=O)CCOC(=O)n1c(C([NH-])=O)cc2ccc(N)cc21 (3D coordinates assigned)
CNC(=O)CCOC(=O)n1c(C([NH-])=O)cc2ccc(N)cc21 (optimized conformer: 70.60464242251064 kcal/mol)

>  <smiles>  (27) 
CNC(=O)CCOC(=O)n1c(C(N)=O)cc2ccc(N)cc21

>  <score_type>  (27) 
oracle

>  <origin>  (27) 
adg

>  <m_score__min__energy>  (27) 
-6.0300000000000002

>  <m_primary>  (27) 
energy

$$$$
28:0
     RDKit          3D

 40 42  0  0  0  0  0  0  0  0999 V2000
  139.1520  146.9230  130.0570 C   0  0  0  0  0  0  0  0  0  0  0  0
  139.6120  148.3090  130.2890 N   0  0  0  0  0  0  0  0  0  0  0  0
  138.7190  149.2540  129.6040 C   0  0  0  0  0  0  0  0  0  0  0  0
  139.7990  148.7250  131.7070 C   0  0  0  0  0  0  0  0  0  0  0  0
  139.5070  150.1740  131.9590 C   0  0  0  0  0  0  0  0  0  0  0  0
  140.8820  150.5420  132.3520 N   0  0  0  0  0  0  0  0  0  0  0  0
  141.5820  151.7200  132.7540 C   0  0  0  0  0  0  0  0  0  0  0  0
  142.9680  151.6610  133.0300 C   0  0  0  0  0  0  0  0  0  0  0  0
  143.6700  152.8160  133.4130 C   0  0  0  0  0  0  0  0  0  0  0  0
  142.9560  154.0080  133.5190 C   0  0  0  0  0  0  0  0  0  0  0  0
  143.3870  155.2760  133.8380 C   0  0  0  0  0  0  0  0  0  0  0  0
  142.2500  156.0810  133.7690 C   0  0  0  0  0  0  0  0  0  0  0  0
  142.2500  157.5270  134.0800 C   0  0  0  0  0  0  0  0  0  0  0  0
  142.6330  158.4900  133.1030 N   0  0  0  0  0  0  0  0  0  0  0  0
  141.8760  157.9200  135.2180 O   0  0  0  0  0  0  0  0  0  0  0  0
  141.1600  155.3370  133.4250 N   0  0  0  0  0  0  0  0  0  0  0  0
  139.8250  155.8000  133.1760 C   0  0  0  0  0  0  0  0  0  0  0  0
  138.9010  154.9640  132.9800 O   0  0  0  0  0  0  0  0  0  0  0  0
  139.5190  157.2370  133.1430 C   0  0  0  0  0  0  0  0  0  0  0  0
  138.8600  157.7700  134.0740 O   0  0  0  0  0  0  0  0  0  0  0  0
  139.9680  158.0210  132.0870 O   0  0  0  0  0  0  0  0  0  0  0  0
  141.6090  154.0730  133.2710 C   0  0  0  0  0  0  0  0  0  0  0  0
  140.8900  152.9430  132.8700 C   0  0  0  0  0  0  0  0  0  0  0  0
  141.1860  149.1120  132.1430 C   0  0  0  0  0  0  0  0  0  0  0  0
  138.9867  146.4249  131.0237 H   0  0  0  0  0  0  0  0  0  0  0  0
  138.2111  146.9394  129.4874 H   0  0  0  0  0  0  0  0  0  0  0  0
  139.9160  146.3736  129.4874 H   0  0  0  0  0  0  0  0  0  0  0  0
  138.1642  149.8411  130.3506 H   0  0  0  0  0  0  0  0  0  0  0  0
  139.3150  149.9310  128.9743 H   0  0  0  0  0  0  0  0  0  0  0  0
  138.0094  148.6972  128.9743 H   0  0  0  0  0  0  0  0  0  0  0  0
  139.2583  147.8763  132.1511 H   0  0  0  0  0  0  0  0  0  0  0  0
  139.1672  150.7024  131.0560 H   0  0  0  0  0  0  0  0  0  0  0  0
  138.7019  150.4073  132.6713 H   0  0  0  0  0  0  0  0  0  0  0  0
  143.5008  150.7025  132.9440 H   0  0  0  0  0  0  0  0  0  0  0  0
  144.7493  152.7806  133.6226 H   0  0  0  0  0  0  0  0  0  0  0  0
  144.4105  155.5880  134.0931 H   0  0  0  0  0  0  0  0  0  0  0  0
  142.0710  158.6280  132.2340 H   0  0  0  0  0  0  0  0  0  0  0  0
  139.8139  153.0063  132.6510 H   0  0  0  0  0  0  0  0  0  0  0  0
  141.9404  148.9470  131.3596 H   0  0  0  0  0  0  0  0  0  0  0  0
  141.6207  148.5601  132.9894 H   0  0  0  0  0  0  0  0  0  0  0  0
  1  2  1  0
  2  3  1  0
  2  4  1  0
  4  5  1  0
  5  6  1  0
  6  7  1  0
  7  8  2  0
  8  9  1  0
  9 10  2  0
 10 11  1  0
 11 12  2  0
 12 13  1  0
 13 14  1  0
 13 15  2  0
 12 16  1  0
 16 17  1  0
 17 18  2  0
 17 19  1  0
 19 20  2  0
 19 21  1  0
 16 22  1  0
 22 23  2  0
  6 24  1  0
 24  4  1  0
 23  7  1  0
 22 10  1  0
  1 25  1  0
  1 26  1  0
  1 27  1  0
  3 28  1  0
  3 29  1  0
  3 30  1  0
  4 31  1  0
  5 32  1  0
  5 33  1  0
  8 34  1  0
  9 35  1  0
 11 36  1  0
 14 37  1  0
 23 38  1  0
 24 39  1  0
 24 40  1  0
M  CHG  2  14  -1  21  -1
M  END
>  <UniqueID>  (28) 
28

>  <SMILES>  (28) 
CN(C)C1CN(c2ccc3cc(C([NH-])=O)n(C(=O)C(=O)[O-])c3c2)C1

>  <Energy>  (28) 
132.95166474313206

>  <Genealogy>  (28) 
CN(C)C1CN(c2ccc3cc(C([NH-])=O)n(C(=O)C(=O)[O-])c3c2)C1 (protonated)
CN(C)C1CN(c2ccc3cc(C([NH-])=O)n(C(=O)C(=O)[O-])c3c2)C1 (3D coordinates assigned)
CN(C)C1CN(c2ccc3cc(C([NH-])=O)n(C(=O)C(=O)[O-])c3c2)C1 (nonaromatic ring conformer: 132.95166474313206 kcal/mol)

>  <smiles>  (28) 
CN(C)C1CN(c2ccc3cc(C(N)=O)n(C(=O)C(=O)O)c3c2)C1

>  <score_type>  (28) 
oracle

>  <origin>  (28) 
adg

>  <m_score__min__energy>  (28) 
-7.2199999999999998

>  <m_primary>  (28) 
energy

$$$$
29:0
     RDKit          3D

 41 42  0  0  0  0  0  0  0  0999 V2000
  148.0280  155.0760  132.9960 C   0  0  0  0  0  0  0  0  0  0  0  0
  147.5740  156.5040  133.0660 C   0  0  0  0  0  0  0  0  0  0  0  0
  148.5220  157.5540  132.9900 C   0  0  0  0  0  0  0  0  0  0  0  0
  148.1120  158.8950  133.0800 C   0  0  0  0  0  0  0  0  0  0  0  0
  146.7570  159.1520  133.2660 C   0  0  0  0  0  0  0  0  0  0  0  0
  146.0890  160.3510  133.3630 C   0  0  0  0  0  0  0  0  0  0  0  0
  144.7490  160.0130  133.5380 C   0  0  0  0  0  0  0  0  0  0  0  0
  143.6840  161.0110  133.7730 C   0  0  0  0  0  0  0  0  0  0  0  0
  142.3590  160.6050  134.1030 N   0  0  0  0  0  0  0  0  0  0  0  0
  143.9600  162.2390  133.7310 O   0  0  0  0  0  0  0  0  0  0  0  0
  144.5910  158.6580  133.5410 N   0  0  0  0  0  0  0  0  0  0  0  0
  143.3620  157.9190  133.5980 C   0  0  0  0  0  0  0  0  0  0  0  0
  142.7670  157.6130  132.5290 O   0  0  0  0  0  0  0  0  0  0  0  0
  142.8250  157.5680  134.8450 O   0  0  0  0  0  0  0  0  0  0  0  0
  141.5210  157.8520  135.2700 C   0  0  0  0  0  0  0  0  0  0  0  0
  141.2730  158.8820  135.9550 O   0  0  0  0  0  0  0  0  0  0  0  0
  140.4980  156.9650  134.9100 O   0  0  0  0  0  0  0  0  0  0  0  0
  139.8250  156.9650  133.6820 C   0  0  0  0  0  0  0  0  0  0  0  0
  139.8540  155.9530  132.9280 O   0  0  0  0  0  0  0  0  0  0  0  0
  139.1180  158.1160  133.3100 O   0  0  0  0  0  0  0  0  0  0  0  0
  139.5410  159.0520  132.3550 C   0  0  0  0  0  0  0  0  0  0  0  0
  140.7230  159.4940  132.3670 O   0  0  0  0  0  0  0  0  0  0  0  0
  138.6170  159.5090  131.3520 N   0  0  0  0  0  0  0  0  0  0  0  0
  137.2490  158.9880  131.3470 C   0  0  0  0  0  0  0  0  0  0  0  0
  139.0520  160.4870  130.3500 C   0  0  0  0  0  0  0  0  0  0  0  0
  145.8310  158.1460  133.3750 C   0  0  0  0  0  0  0  0  0  0  0  0
  146.2090  156.8020  133.2700 C   0  0  0  0  0  0  0  0  0  0  0  0
  148.1536  154.6808  134.0149 H   0  0  0  0  0  0  0  0  0  0  0  0
  147.2757  154.4779  132.4609 H   0  0  0  0  0  0  0  0  0  0  0  0
  148.9876  155.0221  132.4609 H   0  0  0  0  0  0  0  0  0  0  0  0
  149.5883  157.3175  132.8594 H   0  0  0  0  0  0  0  0  0  0  0  0
  148.8398  159.7165  133.0057 H   0  0  0  0  0  0  0  0  0  0  0  0
  146.5211  161.3613  133.3130 H   0  0  0  0  0  0  0  0  0  0  0  0
  142.0820  159.5990  134.0730 H   0  0  0  0  0  0  0  0  0  0  0  0
  136.9030  158.8562  132.3828 H   0  0  0  0  0  0  0  0  0  0  0  0
  136.5883  159.6975  130.8272 H   0  0  0  0  0  0  0  0  0  0  0  0
  137.2276  158.0188  130.8272 H   0  0  0  0  0  0  0  0  0  0  0  0
  139.4488  161.3792  130.8565 H   0  0  0  0  0  0  0  0  0  0  0  0
  139.8374  160.0428  129.7209 H   0  0  0  0  0  0  0  0  0  0  0  0
  138.1961  160.7728  129.7209 H   0  0  0  0  0  0  0  0  0  0  0  0
  145.4614  155.9985  133.3446 H   0  0  0  0  0  0  0  0  0  0  0  0
  1  2  1  0
  2  3  2  0
  3  4  1  0
  4  5  2  0
  5  6  1  0
  6  7  2  0
  7  8  1  0
  8  9  1  0
  8 10  2  0
  7 11  1  0
 11 12  1  0
 12 13  2  0
 12 14  1  0
 14 15  1  0
 15 16  2  0
 15 17  1  0
 17 18  1  0
 18 19  2  0
 18 20  1  0
 20 21  1  0
 21 22  2  0
 21 23  1  0
 23 24  1  0
 23 25  1  0
 11 26  1  0
 26 27  2  0
 27  2  1  0
 26  5  1  0
  1 28  1  0
  1 29  1  0
  1 30  1  0
  3 31  1  0
  4 32  1  0
  6 33  1  0
  9 34  1  0
 24 35  1  0
 24 36  1  0
 24 37  1  0
 25 38  1  0
 25 39  1  0
 25 40  1  0
 27 41  1  0
M  CHG  1   9  -1
M  END
>  <UniqueID>  (29) 
29

>  <SMILES>  (29) 
Cc1ccc2cc(C([NH-])=O)n(C(=O)OC(=O)OC(=O)OC(=O)N(C)C)c2c1

>  <Energy>  (29) 
79.43227564072185

>  <Genealogy>  (29) 
Cc1ccc2cc(C([NH-])=O)n(C(=O)OC(=O)OC(=O)OC(=O)N(C)C)c2c1 (protonated)
Cc1ccc2cc(C([NH-])=O)n(C(=O)OC(=O)OC(=O)OC(=O)N(C)C)c2c1 (3D coordinates assigned)
Cc1ccc2cc(C([NH-])=O)n(C(=O)OC(=O)OC(=O)OC(=O)N(C)C)c2c1 (optimized conformer: 79.43227564072185 kcal/mol)

>  <smiles>  (29) 
Cc1ccc2cc(C(N)=O)n(C(=O)OC(=O)OC(=O)OC(=O)N(C)C)c2c1

>  <score_type>  (29) 
oracle

>  <origin>  (29) 
adg

>  <m_score__min__energy>  (29) 
-6.7999999999999998

>  <m_primary>  (29) 
energy

$$$$
30:0
     RDKit          3D

 49 51  0  0  0  0  0  0  0  0999 V2000
  140.8630  160.0730  136.1190 N   0  0  0  0  0  0  0  0  0  0  0  0
  141.4990  159.6920  134.9020 C   0  0  0  0  0  0  0  0  0  0  0  0
  141.8650  160.5840  134.0920 O   0  0  0  0  0  0  0  0  0  0  0  0
  141.7590  158.2640  134.6250 C   0  0  0  0  0  0  0  0  0  0  0  0
  143.0340  157.7470  134.4050 C   0  0  0  0  0  0  0  0  0  0  0  0
  142.8430  156.4190  134.0990 C   0  0  0  0  0  0  0  0  0  0  0  0
  143.7720  155.4260  133.8050 C   0  0  0  0  0  0  0  0  0  0  0  0
  143.2930  154.1290  133.5580 C   0  0  0  0  0  0  0  0  0  0  0  0
  141.9040  153.8470  133.6100 C   0  0  0  0  0  0  0  0  0  0  0  0
  141.4270  152.5080  133.3790 N   0  0  0  0  0  0  0  0  0  0  0  0
  142.2200  151.3450  133.7950 C   0  0  0  0  0  0  0  0  0  0  0  0
  142.5090  150.4590  132.5790 C   0  0  0  0  0  0  0  0  0  0  0  0
  141.2440  150.1720  131.7080 C   0  0  0  0  0  0  0  0  0  0  0  0
  140.9940  148.7250  131.5510 N   0  0  0  0  0  0  0  0  0  0  0  0
  139.5820  148.3250  131.6640 C   0  0  0  0  0  0  0  0  0  0  0  0
  139.0130  147.7470  130.3500 C   0  0  2  0  0  0  0  0  0  0  0  0
  139.8480  146.7140  129.8980 O   0  0  0  0  0  0  0  0  0  0  0  0
  138.9280  148.8280  129.2610 C   0  0  0  0  0  0  0  0  0  0  0  0
  140.2120  149.2310  128.8630 O   0  0  0  0  0  0  0  0  0  0  0  0
  139.9690  150.8170  132.2840 C   0  0  0  0  0  0  0  0  0  0  0  0
  140.1870  152.3010  132.6140 C   0  0  0  0  0  0  0  0  0  0  0  0
  140.9930  154.8830  133.9170 C   0  0  0  0  0  0  0  0  0  0  0  0
  141.4950  156.1700  134.1410 C   0  0  0  0  0  0  0  0  0  0  0  0
  140.8160  157.2910  134.4670 N   0  0  0  0  0  0  0  0  0  0  0  0
  139.3960  157.3980  134.6630 C   0  0  0  0  0  0  0  0  0  0  0  0
  138.5980  157.0640  133.7480 O   0  0  0  0  0  0  0  0  0  0  0  0
  138.8890  157.8980  135.8570 O   0  0  0  0  0  0  0  0  0  0  0  0
  139.8920  159.7570  136.3400 H   0  0  0  0  0  0  0  0  0  0  0  0
  143.9909  158.2863  134.4635 H   0  0  0  0  0  0  0  0  0  0  0  0
  144.8483  155.6497  133.7671 H   0  0  0  0  0  0  0  0  0  0  0  0
  144.0031  153.3229  133.3216 H   0  0  0  0  0  0  0  0  0  0  0  0
  143.1694  151.6869  134.2329 H   0  0  0  0  0  0  0  0  0  0  0  0
  141.6569  150.7672  134.5426 H   0  0  0  0  0  0  0  0  0  0  0  0
  143.2585  150.9624  131.9506 H   0  0  0  0  0  0  0  0  0  0  0  0
  142.8687  149.4915  132.9593 H   0  0  0  0  0  0  0  0  0  0  0  0
  141.4664  150.6202  130.7284 H   0  0  0  0  0  0  0  0  0  0  0  0
  141.4320  148.3320  130.6860 H   0  0  0  0  0  0  0  0  0  0  0  0
  139.4959  147.5602  132.4499 H   0  0  0  0  0  0  0  0  0  0  0  0
  139.0019  149.2279  131.9053 H   0  0  0  0  0  0  0  0  0  0  0  0
  138.0006  147.3664  130.5504 H   0  0  0  0  0  0  0  0  0  0  0  0
  140.6490  147.1440  129.4980 H   0  0  0  0  0  0  0  0  0  0  0  0
  138.3904  148.4230  128.3909 H   0  0  0  0  0  0  0  0  0  0  0  0
  138.3932  149.6991  129.6674 H   0  0  0  0  0  0  0  0  0  0  0  0
  140.8590  148.6120  129.2930 H   0  0  0  0  0  0  0  0  0  0  0  0
  139.1596  150.7308  131.5441 H   0  0  0  0  0  0  0  0  0  0  0  0
  139.7075  150.2919  133.2145 H   0  0  0  0  0  0  0  0  0  0  0  0
  140.2473  152.8707  131.6749 H   0  0  0  0  0  0  0  0  0  0  0  0
  139.3417  152.6453  133.2280 H   0  0  0  0  0  0  0  0  0  0  0  0
  139.9132  154.6822  133.9785 H   0  0  0  0  0  0  0  0  0  0  0  0
  1  2  1  0
  2  3  2  0
  2  4  1  0
  4  5  2  0
  5  6  1  0
  6  7  2  0
  7  8  1  0
  8  9  2  0
  9 10  1  0
 10 11  1  0
 11 12  1  0
 12 13  1  0
 13 14  1  0
 14 15  1  0
 15 16  1  0
 16 17  1  0
 16 18  1  0
 18 19  1  0
 13 20  1  0
 20 21  1  0
  9 22  1  0
 22 23  2  0
 23 24  1  0
 24 25  1  0
 25 26  2  0
 25 27  1  0
 24  4  1  0
 23  6  1  0
 21 10  1  0
  1 28  1  0
  5 29  1  0
  7 30  1  0
  8 31  1  0
 11 32  1  0
 11 33  1  0
 12 34  1  0
 12 35  1  0
 13 36  1  0
 14 37  1  0
 15 38  1  0
 15 39  1  0
 16 40  1  1
 17 41  1  0
 18 42  1  0
 18 43  1  0
 19 44  1  0
 20 45  1  0
 20 46  1  0
 21 47  1  0
 21 48  1  0
 22 49  1  0
M  CHG  2   1  -1  27  -1
M  END
>  <UniqueID>  (30) 
30

>  <SMILES>  (30) 
[NH-]C(=O)c1cc2ccc(N3CCC(NC[C@H](O)CO)CC3)cc2n1C(=O)[O-]

>  <Energy>  (30) 
97.41539359610837

>  <Genealogy>  (30) 
[NH-]C(=O)c1cc2ccc(N3CCC(NC[C@H](O)CO)CC3)cc2n1C(=O)[O-] (protonated)
[NH-]C(=O)c1cc2ccc(N3CCC(NC[C@H](O)CO)CC3)cc2n1C(=O)[O-] (3D coordinates assigned)
[NH-]C(=O)c1cc2ccc(N3CCC(NC[C@H](O)CO)CC3)cc2n1C(=O)[O-] (nonaromatic ring conformer: 97.41539359610837 kcal/mol)

>  <smiles>  (30) 
NC(=O)c1cc2ccc(N3CCC(NC[C@H](O)CO)CC3)cc2n1C(=O)O

>  <score_type>  (30) 
oracle

>  <origin>  (30) 
adg

>  <m_score__min__energy>  (30) 
-7.6100000000000003

>  <m_primary>  (30) 
energy

$$$$
31:0
     RDKit          3D

 33 34  0  0  0  0  0  0  0  0999 V2000
  148.2650  157.3650  134.3900 N   0  0  0  0  0  0  0  0  0  0  0  0
  147.7770  158.4970  133.6690 C   0  0  0  0  0  0  0  0  0  0  0  0
  148.5690  159.1560  132.9430 O   0  0  0  0  0  0  0  0  0  0  0  0
  146.3480  158.8700  133.7080 C   0  0  0  0  0  0  0  0  0  0  0  0
  145.9020  160.1870  133.7440 C   0  0  0  0  0  0  0  0  0  0  0  0
  144.5290  160.1080  133.7100 C   0  0  0  0  0  0  0  0  0  0  0  0
  143.5740  161.1200  133.7330 C   0  0  0  0  0  0  0  0  0  0  0  0
  142.2210  160.7480  133.7220 C   0  0  0  0  0  0  0  0  0  0  0  0
  141.8470  159.3810  133.7070 C   0  0  0  0  0  0  0  0  0  0  0  0
  140.3950  158.9970  133.6770 C   0  0  0  0  0  0  0  0  0  0  0  0
  139.7550  159.5070  132.4250 C   0  0  0  0  0  0  0  0  0  0  0  0
  139.4970  160.7320  132.3010 O   0  0  0  0  0  0  0  0  0  0  0  0
  139.4890  158.6360  131.3760 O   0  0  0  0  0  0  0  0  0  0  0  0
  142.8450  158.3810  133.6740 C   0  0  0  0  0  0  0  0  0  0  0  0
  144.1870  158.7790  133.6640 C   0  0  0  0  0  0  0  0  0  0  0  0
  145.2960  158.0050  133.6640 N   0  0  0  0  0  0  0  0  0  0  0  0
  145.3460  156.5710  133.7420 C   0  0  0  0  0  0  0  0  0  0  0  0
  145.1770  155.8770  132.7020 O   0  0  0  0  0  0  0  0  0  0  0  0
  145.5830  155.9500  134.9740 O   0  0  0  0  0  0  0  0  0  0  0  0
  145.7950  154.5470  135.1170 C   0  0  0  0  0  0  0  0  0  0  0  0
  146.9820  154.2860  135.9880 C   0  0  0  0  0  0  0  0  0  0  0  0
  147.9430  155.1000  136.0070 O   0  0  0  0  0  0  0  0  0  0  0  0
  147.0170  153.1590  136.7990 O   0  0  0  0  0  0  0  0  0  0  0  0
  147.6120  156.7030  134.8640 H   0  0  0  0  0  0  0  0  0  0  0  0
  149.2850  157.1410  134.3830 H   0  0  0  0  0  0  0  0  0  0  0  0
  146.5166  161.0981  133.7899 H   0  0  0  0  0  0  0  0  0  0  0  0
  143.8706  162.1789  133.7590 H   0  0  0  0  0  0  0  0  0  0  0  0
  141.4427  161.5253  133.7250 H   0  0  0  0  0  0  0  0  0  0  0  0
  140.3076  157.9010  133.7100 H   0  0  0  0  0  0  0  0  0  0  0  0
  139.8873  159.4389  134.5470 H   0  0  0  0  0  0  0  0  0  0  0  0
  142.5737  157.3151  133.6566 H   0  0  0  0  0  0  0  0  0  0  0  0
  144.9038  154.0902  135.5722 H   0  0  0  0  0  0  0  0  0  0  0  0
  145.9778  154.1104  134.1240 H   0  0  0  0  0  0  0  0  0  0  0  0
  1  2  1  0
  2  3  2  0
  2  4  1  0
  4  5  2  0
  5  6  1  0
  6  7  2  0
  7  8  1  0
  8  9  2  0
  9 10  1  0
 10 11  1  0
 11 12  2  0
 11 13  1  0
  9 14  1  0
 14 15  2  0
 15 16  1  0
 16 17  1  0
 17 18  2  0
 17 19  1  0
 19 20  1  0
 20 21  1  0
 21 22  2  0
 21 23  1  0
 16  4  1  0
 15  6  1  0
  1 24  1  0
  1 25  1  0
  5 26  1  0
  7 27  1  0
  8 28  1  0
 10 29  1  0
 10 30  1  0
 14 31  1  0
 20 32  1  0
 20 33  1  0
M  CHG  2  13  -1  23  -1
M  END
>  <UniqueID>  (31) 
31

>  <SMILES>  (31) 
NC(=O)c1cc2ccc(CC(=O)[O-])cc2n1C(=O)OCC(=O)[O-]

>  <Energy>  (31) 
68.68982902301758

>  <Genealogy>  (31) 
NC(=O)c1cc2ccc(CC(=O)[O-])cc2n1C(=O)OCC(=O)[O-] (protonated)
NC(=O)c1cc2ccc(CC(=O)[O-])cc2n1C(=O)OCC(=O)[O-] (3D coordinates assigned)
NC(=O)c1cc2ccc(CC(=O)[O-])cc2n1C(=O)OCC(=O)[O-] (optimized conformer: 68.68982902301758 kcal/mol)

>  <smiles>  (31) 
NC(=O)c1cc2ccc(CC(=O)O)cc2n1C(=O)OCC(=O)O

>  <score_type>  (31) 
oracle

>  <origin>  (31) 
adg

>  <m_score__min__energy>  (31) 
-6.4900000000000002

>  <m_primary>  (31) 
energy

$$$$
32:0
     RDKit          3D

 33 34  0  0  0  0  0  0  0  0999 V2000
  145.1490  160.4830  133.6300 C   0  0  0  0  0  0  0  0  0  0  0  0
  146.1810  159.4330  133.3410 C   0  0  0  0  0  0  0  0  0  0  0  0
  147.4810  159.8110  132.9280 C   0  0  0  0  0  0  0  0  0  0  0  0
  148.4630  158.8380  132.6770 C   0  0  0  0  0  0  0  0  0  0  0  0
  148.1200  157.5020  132.8660 C   0  0  0  0  0  0  0  0  0  0  0  0
  148.8690  156.3620  132.6800 C   0  0  0  0  0  0  0  0  0  0  0  0
  148.0250  155.3060  133.0180 C   0  0  0  0  0  0  0  0  0  0  0  0
  148.4500  153.8890  133.0510 C   0  0  0  0  0  0  0  0  0  0  0  0
  148.1660  153.0690  134.1870 N   0  0  0  0  0  0  0  0  0  0  0  0
  149.0420  153.3820  132.0620 O   0  0  0  0  0  0  0  0  0  0  0  0
  146.8020  155.7750  133.3970 N   0  0  0  0  0  0  0  0  0  0  0  0
  145.6420  155.0090  133.7660 C   0  0  0  0  0  0  0  0  0  0  0  0
  144.5250  155.2670  133.2400 O   0  0  0  0  0  0  0  0  0  0  0  0
  145.7550  153.9900  134.7160 O   0  0  0  0  0  0  0  0  0  0  0  0
  145.8320  154.2460  136.1130 C   0  0  0  0  0  0  0  0  0  0  0  0
  146.3410  153.1000  136.7500 O   0  0  0  0  0  0  0  0  0  0  0  0
  147.9790  153.3820  137.1370 P   0  0  0  0  0  0  0  0  0  0  0  0
  148.3990  154.7520  136.6530 O   0  0  0  0  0  0  0  0  0  0  0  0
  148.2150  153.2770  138.8100 O   0  0  0  0  0  0  0  0  0  0  0  0
  148.9310  152.2120  136.3740 O   0  0  0  0  0  0  0  0  0  0  0  0
  146.8760  157.1210  133.2990 C   0  0  0  0  0  0  0  0  0  0  0  0
  145.8730  158.0690  133.5380 C   0  0  0  0  0  0  0  0  0  0  0  0
  145.0368  160.5971  134.7183 H   0  0  0  0  0  0  0  0  0  0  0  0
  145.4673  161.4404  133.1918 H   0  0  0  0  0  0  0  0  0  0  0  0
  144.1862  160.1813  133.1918 H   0  0  0  0  0  0  0  0  0  0  0  0
  147.7247  160.8763  132.8024 H   0  0  0  0  0  0  0  0  0  0  0  0
  149.4712  159.1229  132.3417 H   0  0  0  0  0  0  0  0  0  0  0  0
  149.9123  156.2982  132.3373 H   0  0  0  0  0  0  0  0  0  0  0  0
  147.7270  153.4660  135.0470 H   0  0  0  0  0  0  0  0  0  0  0  0
  148.4360  152.0600  134.1840 H   0  0  0  0  0  0  0  0  0  0  0  0
  146.4999  155.1003  136.2973 H   0  0  0  0  0  0  0  0  0  0  0  0
  144.8333  154.4841  136.5078 H   0  0  0  0  0  0  0  0  0  0  0  0
  144.8713  157.7590  133.8705 H   0  0  0  0  0  0  0  0  0  0  0  0
  1  2  1  0
  2  3  2  0
  3  4  1  0
  4  5  2  0
  5  6  1  0
  6  7  2  0
  7  8  1  0
  8  9  1  0
  8 10  2  0
  7 11  1  0
 11 12  1  0
 12 13  2  0
 12 14  1  0
 14 15  1  0
 15 16  1  0
 16 17  1  0
 17 18  2  0
 17 19  1  0
 17 20  1  0
 11 21  1  0
 21 22  2  0
 22  2  1  0
 21  5  1  0
  1 23  1  0
  1 24  1  0
  1 25  1  0
  3 26  1  0
  4 27  1  0
  6 28  1  0
  9 29  1  0
  9 30  1  0
 15 31  1  0
 15 32  1  0
 22 33  1  0
M  CHG  2  19  -1  20  -1
M  END
>  <UniqueID>  (32) 
32

>  <SMILES>  (32) 
Cc1ccc2cc(C(N)=O)n(C(=O)OCOP(=O)([O-])[O-])c2c1

>  <Energy>  (32) 
68.26989048784078

>  <Genealogy>  (32) 
Cc1ccc2cc(C(N)=O)n(C(=O)OCOP(=O)([O-])[O-])c2c1 (protonated)
Cc1ccc2cc(C(N)=O)n(C(=O)OCOP(=O)([O-])[O-])c2c1 (3D coordinates assigned)
Cc1ccc2cc(C(N)=O)n(C(=O)OCOP(=O)([O-])[O-])c2c1 (optimized conformer: 68.26989048784078 kcal/mol)

>  <smiles>  (32) 
Cc1ccc2cc(C(N)=O)n(C(=O)OCOP(=O)(O)O)c2c1

>  <score_type>  (32) 
oracle

>  <origin>  (32) 
adg

>  <m_score__min__energy>  (32) 
-6.2599999999999998

>  <m_primary>  (32) 
energy

$$$$
33:0
     RDKit          3D

 38 40  0  0  0  0  0  0  0  0999 V2000
  146.0550  153.1310  136.7580 N   0  0  0  0  0  0  0  0  0  0  0  0
  145.0810  153.7980  135.9590 C   0  0  0  0  0  0  0  0  0  0  0  0
  143.8900  153.3870  135.9700 O   0  0  0  0  0  0  0  0  0  0  0  0
  145.4390  154.9810  135.1480 C   0  0  0  0  0  0  0  0  0  0  0  0
  144.5460  156.0040  134.8360 C   0  0  0  0  0  0  0  0  0  0  0  0
  145.2770  156.9230  134.1170 C   0  0  0  0  0  0  0  0  0  0  0  0
  144.8850  158.1220  133.5340 C   0  0  0  0  0  0  0  0  0  0  0  0
  145.8480  158.8510  132.8160 C   0  0  0  0  0  0  0  0  0  0  0  0
  147.1810  158.3750  132.6890 C   0  0  0  0  0  0  0  0  0  0  0  0
  148.1710  159.1610  131.9110 C   0  0  0  0  0  0  0  0  0  0  0  0
  149.4780  158.6930  131.6780 C   0  0  0  0  0  0  0  0  0  0  0  0
  150.3470  159.4560  130.9630 N   0  0  0  0  0  0  0  0  0  0  0  0
  149.9820  160.6670  130.4690 C   0  0  0  0  0  0  0  0  0  0  0  0
  148.6930  161.1430  130.7050 C   0  0  0  0  0  0  0  0  0  0  0  0
  147.8230  160.3830  131.4200 N   0  0  0  0  0  0  0  0  0  0  0  0
  147.5330  157.1400  133.2880 C   0  0  0  0  0  0  0  0  0  0  0  0
  146.5580  156.4480  134.0130 C   0  0  0  0  0  0  0  0  0  0  0  0
  146.6740  155.2590  134.6440 N   0  0  0  0  0  0  0  0  0  0  0  0
  147.8460  154.4290  134.6810 C   0  0  0  0  0  0  0  0  0  0  0  0
  148.3350  154.0970  135.7940 O   0  0  0  0  0  0  0  0  0  0  0  0
  148.4770  153.9670  133.4310 C   0  0  0  0  0  0  0  0  0  0  0  0
  148.9770  154.8120  132.6390 O   0  0  0  0  0  0  0  0  0  0  0  0
  148.5370  152.5680  133.1150 N   0  0  0  0  0  0  0  0  0  0  0  0
  149.1530  152.0960  131.8760 C   0  0  0  0  0  0  0  0  0  0  0  0
  149.4190  150.6260  131.9460 C   0  0  0  0  0  0  0  0  0  0  0  0
  148.9970  149.9520  132.9230 O   0  0  0  0  0  0  0  0  0  0  0  0
  150.0860  149.9900  130.9060 O   0  0  0  0  0  0  0  0  0  0  0  0
  146.8100  153.6660  137.2410 H   0  0  0  0  0  0  0  0  0  0  0  0
  143.4816  156.0647  135.1069 H   0  0  0  0  0  0  0  0  0  0  0  0
  143.8526  158.4891  133.6316 H   0  0  0  0  0  0  0  0  0  0  0  0
  145.5659  159.8043  132.3452 H   0  0  0  0  0  0  0  0  0  0  0  0
  149.7943  157.7159  132.0720 H   0  0  0  0  0  0  0  0  0  0  0  0
  150.6972  161.2674  129.8876 H   0  0  0  0  0  0  0  0  0  0  0  0
  148.3834  162.1243  130.3161 H   0  0  0  0  0  0  0  0  0  0  0  0
  148.5504  156.7348  133.1849 H   0  0  0  0  0  0  0  0  0  0  0  0
  148.1210  151.8790  133.7820 H   0  0  0  0  0  0  0  0  0  0  0  0
  148.4749  152.3008  131.0345 H   0  0  0  0  0  0  0  0  0  0  0  0
  150.1082  152.6223  131.7324 H   0  0  0  0  0  0  0  0  0  0  0  0
  1  2  1  0
  2  3  2  0
  2  4  1  0
  4  5  2  0
  5  6  1  0
  6  7  2  0
  7  8  1  0
  8  9  2  0
  9 10  1  0
 10 11  2  0
 11 12  1  0
 12 13  2  0
 13 14  1  0
 14 15  2  0
  9 16  1  0
 16 17  2  0
 17 18  1  0
 18 19  1  0
 19 20  2  0
 19 21  1  0
 21 22  2  0
 21 23  1  0
 23 24  1  0
 24 25  1  0
 25 26  2  0
 25 27  1  0
 18  4  1  0
 17  6  1  0
 15 10  1  0
  1 28  1  0
  5 29  1  0
  7 30  1  0
  8 31  1  0
 11 32  1  0
 13 33  1  0
 14 34  1  0
 16 35  1  0
 23 36  1  0
 24 37  1  0
 24 38  1  0
M  CHG  2   1  -1  27  -1
M  END
>  <UniqueID>  (33) 
33

>  <SMILES>  (33) 
[NH-]C(=O)c1cc2ccc(-c3cnccn3)cc2n1C(=O)C(=O)NCC(=O)[O-]

>  <Energy>  (33) 
83.1351438218289

>  <Genealogy>  (33) 
[NH-]C(=O)c1cc2ccc(-c3cnccn3)cc2n1C(=O)C(=O)NCC(=O)[O-] (protonated)
[NH-]C(=O)c1cc2ccc(-c3cnccn3)cc2n1C(=O)C(=O)NCC(=O)[O-] (3D coordinates assigned)
[NH-]C(=O)c1cc2ccc(-c3cnccn3)cc2n1C(=O)C(=O)NCC(=O)[O-] (optimized conformer: 83.1351438218289 kcal/mol)

>  <smiles>  (33) 
NC(=O)c1cc2ccc(-c3cnccn3)cc2n1C(=O)C(=O)NCC(=O)O

>  <score_type>  (33) 
oracle

>  <origin>  (33) 
adg

>  <m_score__min__energy>  (33) 
-7.5999999999999996

>  <m_primary>  (33) 
energy

$$$$
34:0
     RDKit          3D

 44 45  0  0  0  0  0  0  0  0999 V2000
  139.2480  157.9130  131.7340 C   0  0  0  0  0  0  0  0  0  0  0  0
  139.9460  158.9640  132.6210 C   0  0  0  0  0  0  0  0  0  0  0  0
  139.3100  160.3460  132.3780 C   0  0  0  0  0  0  0  0  0  0  0  0
  141.3790  159.0160  132.2790 N   0  0  0  0  0  0  0  0  0  0  0  0
  139.7660  158.5970  134.0820 C   0  0  0  0  0  0  0  0  0  0  0  0
  138.6250  158.2720  134.5120 O   0  0  0  0  0  0  0  0  0  0  0  0
  140.8530  158.6690  134.9620 O   0  0  0  0  0  0  0  0  0  0  0  0
  141.7850  157.6070  135.1300 C   0  0  0  0  0  0  0  0  0  0  0  0
  143.1040  158.0960  134.9130 O   0  0  0  0  0  0  0  0  0  0  0  0
  143.7490  158.0290  133.6760 C   0  0  0  0  0  0  0  0  0  0  0  0
  143.2580  157.3380  132.7420 O   0  0  0  0  0  0  0  0  0  0  0  0
  144.9570  158.7780  133.4610 N   0  0  0  0  0  0  0  0  0  0  0  0
  145.1310  160.1290  133.5400 C   0  0  0  0  0  0  0  0  0  0  0  0
  144.0640  161.1360  133.7050 C   0  0  0  0  0  0  0  0  0  0  0  0
  142.6910  160.7800  133.5640 N   0  0  0  0  0  0  0  0  0  0  0  0
  144.3700  162.3400  133.9210 O   0  0  0  0  0  0  0  0  0  0  0  0
  146.4710  160.4610  133.3490 C   0  0  0  0  0  0  0  0  0  0  0  0
  147.1160  159.2660  133.1330 C   0  0  0  0  0  0  0  0  0  0  0  0
  148.4630  159.0080  132.8930 C   0  0  0  0  0  0  0  0  0  0  0  0
  148.8580  157.6700  132.7290 C   0  0  0  0  0  0  0  0  0  0  0  0
  147.9070  156.6220  132.8050 C   0  0  0  0  0  0  0  0  0  0  0  0
  148.3480  155.1920  132.6640 C   0  0  0  0  0  0  0  0  0  0  0  0
  147.9300  154.4210  133.8370 C   0  0  0  0  0  0  0  0  0  0  0  0
  147.5990  153.8120  134.7650 N   0  0  0  0  0  0  0  0  0  0  0  0
  146.5510  156.9210  133.0650 C   0  0  0  0  0  0  0  0  0  0  0  0
  146.1810  158.2650  133.2060 C   0  0  0  0  0  0  0  0  0  0  0  0
  138.7521  157.1663  132.3715 H   0  0  0  0  0  0  0  0  0  0  0  0
  138.4989  158.4084  131.0989 H   0  0  0  0  0  0  0  0  0  0  0  0
  139.9952  157.4147  131.0989 H   0  0  0  0  0  0  0  0  0  0  0  0
  139.0902  160.8235  133.3443 H   0  0  0  0  0  0  0  0  0  0  0  0
  140.0087  160.9761  131.8081 H   0  0  0  0  0  0  0  0  0  0  0  0
  138.3769  160.2251  131.8081 H   0  0  0  0  0  0  0  0  0  0  0  0
  141.6170  159.9260  131.8180 H   0  0  0  0  0  0  0  0  0  0  0  0
  141.6240  158.2430  131.6160 H   0  0  0  0  0  0  0  0  0  0  0  0
  141.9650  158.9110  133.1400 H   0  0  0  0  0  0  0  0  0  0  0  0
  141.7054  157.2072  136.1517 H   0  0  0  0  0  0  0  0  0  0  0  0
  141.5658  156.8082  134.4062 H   0  0  0  0  0  0  0  0  0  0  0  0
  142.3220  159.8910  133.9690 H   0  0  0  0  0  0  0  0  0  0  0  0
  146.9179  161.4660  133.3672 H   0  0  0  0  0  0  0  0  0  0  0  0
  149.1953  159.8267  132.8337 H   0  0  0  0  0  0  0  0  0  0  0  0
  149.9155  157.4334  132.5398 H   0  0  0  0  0  0  0  0  0  0  0  0
  147.8930  154.7577  131.7616 H   0  0  0  0  0  0  0  0  0  0  0  0
  149.4444  155.1587  132.5819 H   0  0  0  0  0  0  0  0  0  0  0  0
  145.8041  156.1185  133.1546 H   0  0  0  0  0  0  0  0  0  0  0  0
  1  2  1  0
  2  3  1  0
  2  4  1  0
  2  5  1  0
  5  6  2  0
  5  7  1  0
  7  8  1  0
  8  9  1  0
  9 10  1  0
 10 11  2  0
 10 12  1  0
 12 13  1  0
 13 14  1  0
 14 15  1  0
 14 16  2  0
 13 17  2  0
 17 18  1  0
 18 19  2  0
 19 20  1  0
 20 21  2  0
 21 22  1  0
 22 23  1  0
 23 24  3  0
 21 25  1  0
 25 26  2  0
 26 12  1  0
 26 18  1  0
  1 27  1  0
  1 28  1  0
  1 29  1  0
  3 30  1  0
  3 31  1  0
  3 32  1  0
  4 33  1  0
  4 34  1  0
  4 35  1  0
  8 36  1  0
  8 37  1  0
 15 38  1  0
 17 39  1  0
 19 40  1  0
 20 41  1  0
 22 42  1  0
 22 43  1  0
 25 44  1  0
M  CHG  2   4   1  15  -1
M  END
>  <UniqueID>  (34) 
34

>  <SMILES>  (34) 
CC(C)([NH3+])C(=O)OCOC(=O)n1c(C([NH-])=O)cc2ccc(CC#N)cc21

>  <Energy>  (34) 
74.73697236052013

>  <Genealogy>  (34) 
CC(C)([NH3+])C(=O)OCOC(=O)n1c(C([NH-])=O)cc2ccc(CC#N)cc21 (protonated)
CC(C)([NH3+])C(=O)OCOC(=O)n1c(C([NH-])=O)cc2ccc(CC#N)cc21 (3D coordinates assigned)
CC(C)([NH3+])C(=O)OCOC(=O)n1c(C([NH-])=O)cc2ccc(CC#N)cc21 (optimized conformer: 74.73697236052013 kcal/mol)

>  <smiles>  (34) 
CC(C)(N)C(=O)OCOC(=O)n1c(C(N)=O)cc2ccc(CC#N)cc21

>  <score_type>  (34) 
oracle

>  <origin>  (34) 
adg

>  <m_score__min__energy>  (34) 
-5.9299999999999997

>  <m_primary>  (34) 
energy

$$$$
35:0
     RDKit          3D

 38 39  0  0  0  0  0  0  0  0999 V2000
  139.9320  157.7670  133.4520 C   0  0  0  0  0  0  0  0  0  0  0  0
  140.9000  158.0160  134.5270 N   0  0  0  0  0  0  0  0  0  0  0  0
  140.5890  157.5620  135.8940 C   0  0  0  0  0  0  0  0  0  0  0  0
  141.2070  158.4920  136.9440 C   0  0  0  0  0  0  0  0  0  0  0  0
  140.6240  159.7650  136.8810 O   0  0  0  0  0  0  0  0  0  0  0  0
  142.1320  158.7180  134.2310 C   0  0  0  0  0  0  0  0  0  0  0  0
  142.1250  160.1240  134.0230 C   0  0  0  0  0  0  0  0  0  0  0  0
  143.3120  160.8170  133.7310 C   0  0  0  0  0  0  0  0  0  0  0  0
  144.4930  160.0890  133.6610 C   0  0  0  0  0  0  0  0  0  0  0  0
  145.7740  160.5050  133.3800 C   0  0  0  0  0  0  0  0  0  0  0  0
  146.5580  159.3550  133.4430 C   0  0  0  0  0  0  0  0  0  0  0  0
  148.0280  159.3640  133.2910 C   0  0  0  0  0  0  0  0  0  0  0  0
  148.8560  158.9710  134.3840 N   0  0  0  0  0  0  0  0  0  0  0  0
  148.5630  159.6800  132.1960 O   0  0  0  0  0  0  0  0  0  0  0  0
  145.7890  158.2690  133.7420 N   0  0  0  0  0  0  0  0  0  0  0  0
  146.2020  156.8980  133.8580 C   0  0  0  0  0  0  0  0  0  0  0  0
  145.3340  155.9860  133.9320 O   0  0  0  0  0  0  0  0  0  0  0  0
  147.5690  156.5930  133.9140 O   0  0  0  0  0  0  0  0  0  0  0  0
  148.3410  156.1460  132.8340 C   0  0  0  0  0  0  0  0  0  0  0  0
  149.4170  156.9560  132.3670 N   0  0  0  0  0  0  0  0  0  0  0  0
  148.1010  155.0450  132.2700 O   0  0  0  0  0  0  0  0  0  0  0  0
  144.5280  158.7370  133.8750 C   0  0  0  0  0  0  0  0  0  0  0  0
  143.3600  158.0160  134.1430 C   0  0  0  0  0  0  0  0  0  0  0  0
  138.9546  157.5156  133.8896 H   0  0  0  0  0  0  0  0  0  0  0  0
  139.8342  158.6692  132.8304 H   0  0  0  0  0  0  0  0  0  0  0  0
  140.2817  156.9296  132.8304 H   0  0  0  0  0  0  0  0  0  0  0  0
  139.4972  157.5470  136.0269 H   0  0  0  0  0  0  0  0  0  0  0  0
  141.0115  156.5555  136.0300 H   0  0  0  0  0  0  0  0  0  0  0  0
  141.0408  158.0676  137.9451 H   0  0  0  0  0  0  0  0  0  0  0  0
  142.2846  158.5856  136.7439 H   0  0  0  0  0  0  0  0  0  0  0  0
  139.6600  159.6460  137.0900 H   0  0  0  0  0  0  0  0  0  0  0  0
  141.1769  160.6775  134.0916 H   0  0  0  0  0  0  0  0  0  0  0  0
  143.3062  161.9040  133.5628 H   0  0  0  0  0  0  0  0  0  0  0  0
  146.1082  161.5283  133.1537 H   0  0  0  0  0  0  0  0  0  0  0  0
  149.1990  157.9880  134.4710 H   0  0  0  0  0  0  0  0  0  0  0  0
  150.0050  156.6430  131.5630 H   0  0  0  0  0  0  0  0  0  0  0  0
  149.6270  157.8670  132.8310 H   0  0  0  0  0  0  0  0  0  0  0  0
  143.3938  156.9254  134.2828 H   0  0  0  0  0  0  0  0  0  0  0  0
  1  2  1  0
  2  3  1  0
  3  4  1  0
  4  5  1  0
  2  6  1  0
  6  7  2  0
  7  8  1  0
  8  9  2  0
  9 10  1  0
 10 11  2  0
 11 12  1  0
 12 13  1  0
 12 14  2  0
 11 15  1  0
 15 16  1  0
 16 17  2  0
 16 18  1  0
 18 19  1  0
 19 20  1  0
 19 21  2  0
 15 22  1  0
 22 23  2  0
 23  6  1  0
 22  9  1  0
  1 24  1  0
  1 25  1  0
  1 26  1  0
  3 27  1  0
  3 28  1  0
  4 29  1  0
  4 30  1  0
  5 31  1  0
  7 32  1  0
  8 33  1  0
 10 34  1  0
 13 35  1  0
 20 36  1  0
 20 37  1  0
 23 38  1  0
M  CHG  1  13  -1
M  END
>  <UniqueID>  (35) 
35

>  <SMILES>  (35) 
CN(CCO)c1ccc2cc(C([NH-])=O)n(C(=O)OC(N)=O)c2c1

>  <Energy>  (35) 
75.9741441930742

>  <Genealogy>  (35) 
CN(CCO)c1ccc2cc(C([NH-])=O)n(C(=O)OC(N)=O)c2c1 (protonated)
CN(CCO)c1ccc2cc(C([NH-])=O)n(C(=O)OC(N)=O)c2c1 (3D coordinates assigned)
CN(CCO)c1ccc2cc(C([NH-])=O)n(C(=O)OC(N)=O)c2c1 (optimized conformer: 75.9741441930742 kcal/mol)

>  <smiles>  (35) 
CN(CCO)c1ccc2cc(C(N)=O)n(C(=O)OC(N)=O)c2c1

>  <score_type>  (35) 
oracle

>  <origin>  (35) 
adg

>  <m_score__min__energy>  (35) 
-6.5

>  <m_primary>  (35) 
energy

$$$$
36:0
     RDKit          3D

 41 42  0  0  0  0  0  0  0  0999 V2000
  143.8530  154.9240  133.5470 C   0  0  0  0  0  0  0  0  0  0  0  0
  144.7040  155.2970  134.6240 O   0  0  0  0  0  0  0  0  0  0  0  0
  145.9790  155.8310  134.4250 C   0  0  0  0  0  0  0  0  0  0  0  0
  146.8800  155.6760  135.2950 O   0  0  0  0  0  0  0  0  0  0  0  0
  146.2640  156.5900  133.1990 C   0  0  0  0  0  0  0  0  0  0  0  0
  146.5650  155.9720  132.1440 O   0  0  0  0  0  0  0  0  0  0  0  0
  146.1770  158.0240  133.1810 N   0  0  0  0  0  0  0  0  0  0  0  0
  147.2000  158.9130  133.0420 C   0  0  0  0  0  0  0  0  0  0  0  0
  148.6060  158.5700  132.7420 C   0  0  0  0  0  0  0  0  0  0  0  0
  148.9380  157.4980  131.8580 N   0  0  0  0  0  0  0  0  0  0  0  0
  149.5310  159.2650  133.2410 O   0  0  0  0  0  0  0  0  0  0  0  0
  146.7450  160.2170  133.2160 C   0  0  0  0  0  0  0  0  0  0  0  0
  145.3960  160.1010  133.4680 C   0  0  0  0  0  0  0  0  0  0  0  0
  144.4490  161.0810  133.7460 C   0  0  0  0  0  0  0  0  0  0  0  0
  143.1340  160.6680  134.0220 C   0  0  0  0  0  0  0  0  0  0  0  0
  142.7930  159.2910  134.0220 C   0  0  0  0  0  0  0  0  0  0  0  0
  141.3880  158.8550  134.3460 C   0  0  0  0  0  0  0  0  0  0  0  0
  140.4290  159.2570  133.2560 C   0  0  0  0  0  0  0  0  0  0  0  0
  140.4200  160.4640  132.8870 O   0  0  0  0  0  0  0  0  0  0  0  0
  139.5070  158.3200  132.6560 N   0  0  0  0  0  0  0  0  0  0  0  0
  139.5320  156.8970  133.0100 C   0  0  0  0  0  0  0  0  0  0  0  0
  138.5330  158.8140  131.6760 C   0  0  0  0  0  0  0  0  0  0  0  0
  143.7880  158.3240  133.7540 C   0  0  0  0  0  0  0  0  0  0  0  0
  145.0810  158.7670  133.4510 C   0  0  0  0  0  0  0  0  0  0  0  0
  142.9144  154.5126  133.9468 H   0  0  0  0  0  0  0  0  0  0  0  0
  143.6327  155.8081  132.9306 H   0  0  0  0  0  0  0  0  0  0  0  0
  144.3538  154.1629  132.9306 H   0  0  0  0  0  0  0  0  0  0  0  0
  148.2100  157.0310  131.2750 H   0  0  0  0  0  0  0  0  0  0  0  0
  149.9380  157.2330  131.7110 H   0  0  0  0  0  0  0  0  0  0  0  0
  147.3368  161.1428  133.1634 H   0  0  0  0  0  0  0  0  0  0  0  0
  144.7208  162.1469  133.7498 H   0  0  0  0  0  0  0  0  0  0  0  0
  142.3616  161.4202  134.2402 H   0  0  0  0  0  0  0  0  0  0  0  0
  141.3681  157.7607  134.4561 H   0  0  0  0  0  0  0  0  0  0  0  0
  141.0779  159.3441  135.2812 H   0  0  0  0  0  0  0  0  0  0  0  0
  139.5339  156.7915  134.1049 H   0  0  0  0  0  0  0  0  0  0  0  0
  138.6424  156.4003  132.5953 H   0  0  0  0  0  0  0  0  0  0  0  0
  140.4385  156.4319  132.5953 H   0  0  0  0  0  0  0  0  0  0  0  0
  137.6719  159.2507  132.2030 H   0  0  0  0  0  0  0  0  0  0  0  0
  139.0047  159.5818  131.0452 H   0  0  0  0  0  0  0  0  0  0  0  0
  138.1922  157.9798  131.0452 H   0  0  0  0  0  0  0  0  0  0  0  0
  143.5524  157.2499  133.7827 H   0  0  0  0  0  0  0  0  0  0  0  0
  1  2  1  0
  2  3  1  0
  3  4  2  0
  3  5  1  0
  5  6  2  0
  5  7  1  0
  7  8  1  0
  8  9  1  0
  9 10  1  0
  9 11  2  0
  8 12  2  0
 12 13  1  0
 13 14  2  0
 14 15  1  0
 15 16  2  0
 16 17  1  0
 17 18  1  0
 18 19  2  0
 18 20  1  0
 20 21  1  0
 20 22  1  0
 16 23  1  0
 23 24  2  0
 24  7  1  0
 24 13  1  0
  1 25  1  0
  1 26  1  0
  1 27  1  0
 10 28  1  0
 10 29  1  0
 12 30  1  0
 14 31  1  0
 15 32  1  0
 17 33  1  0
 17 34  1  0
 21 35  1  0
 21 36  1  0
 21 37  1  0
 22 38  1  0
 22 39  1  0
 22 40  1  0
 23 41  1  0
M  END
>  <UniqueID>  (36) 
36

>  <SMILES>  (36) 
COC(=O)C(=O)n1c(C(N)=O)cc2ccc(CC(=O)N(C)C)cc21

>  <Energy>  (36) 
74.71252794294966

>  <Genealogy>  (36) 
COC(=O)C(=O)n1c(C(N)=O)cc2ccc(CC(=O)N(C)C)cc21 (3D coordinates assigned)
COC(=O)C(=O)n1c(C(N)=O)cc2ccc(CC(=O)N(C)C)cc21 (optimized conformer: 74.71252794294966 kcal/mol)

>  <smiles>  (36) 
COC(=O)C(=O)n1c(C(N)=O)cc2ccc(CC(=O)N(C)C)cc21

>  <score_type>  (36) 
oracle

>  <origin>  (36) 
adg

>  <m_score__min__energy>  (36) 
-6.8700000000000001

>  <m_primary>  (36) 
energy

$$$$
37:0
     RDKit          3D

 37 39  0  0  0  0  0  0  0  0999 V2000
  149.0280  157.3110  131.8560 N   0  0  0  0  0  0  0  0  0  0  0  0
  148.6900  158.5470  132.4870 C   0  0  0  0  0  0  0  0  0  0  0  0
  149.6010  159.3780  132.7440 O   0  0  0  0  0  0  0  0  0  0  0  0
  147.3030  158.8400  132.9010 C   0  0  0  0  0  0  0  0  0  0  0  0
  146.7940  160.1310  133.0130 C   0  0  0  0  0  0  0  0  0  0  0  0
  145.5080  159.9760  133.4780 C   0  0  0  0  0  0  0  0  0  0  0  0
  144.5360  160.9310  133.7550 C   0  0  0  0  0  0  0  0  0  0  0  0
  143.2760  160.4840  134.1870 C   0  0  0  0  0  0  0  0  0  0  0  0
  143.0140  159.1010  134.3230 C   0  0  0  0  0  0  0  0  0  0  0  0
  141.7240  158.6580  134.7490 N   0  0  0  0  0  0  0  0  0  0  0  0
  140.8660  157.4710  134.5700 C   0  0  0  0  0  0  0  0  0  0  0  0
  139.7370  157.9740  135.4050 C   0  0  0  0  0  0  0  0  0  0  0  0
  139.5380  157.2520  136.5700 F   0  0  0  0  0  0  0  0  0  0  0  0
  138.5800  158.2270  134.6870 F   0  0  0  0  0  0  0  0  0  0  0  0
  140.6140  159.1670  135.5780 C   0  0  0  0  0  0  0  0  0  0  0  0
  144.0210  158.1580  134.0330 C   0  0  0  0  0  0  0  0  0  0  0  0
  145.2740  158.6310  133.6240 C   0  0  0  0  0  0  0  0  0  0  0  0
  146.3690  157.9180  133.2710 N   0  0  0  0  0  0  0  0  0  0  0  0
  146.4730  156.4890  133.1760 C   0  0  0  0  0  0  0  0  0  0  0  0
  145.5400  155.8210  132.6510 O   0  0  0  0  0  0  0  0  0  0  0  0
  147.6130  155.8410  133.6660 O   0  0  0  0  0  0  0  0  0  0  0  0
  147.7710  154.4250  133.6680 C   0  0  0  0  0  0  0  0  0  0  0  0
  148.9560  154.0330  132.8450 C   0  0  0  0  0  0  0  0  0  0  0  0
  149.2060  152.8180  132.6290 O   0  0  0  0  0  0  0  0  0  0  0  0
  149.7690  155.0130  132.2900 O   0  0  0  0  0  0  0  0  0  0  0  0
  148.3340  156.5360  131.7810 H   0  0  0  0  0  0  0  0  0  0  0  0
  150.0060  157.1380  131.5340 H   0  0  0  0  0  0  0  0  0  0  0  0
  147.3099  161.0741  132.7795 H   0  0  0  0  0  0  0  0  0  0  0  0
  144.7472  162.0043  133.6394 H   0  0  0  0  0  0  0  0  0  0  0  0
  142.4879  161.2148  134.4210 H   0  0  0  0  0  0  0  0  0  0  0  0
  140.5795  157.3070  133.5207 H   0  0  0  0  0  0  0  0  0  0  0  0
  141.2949  156.4943  134.8384 H   0  0  0  0  0  0  0  0  0  0  0  0
  140.1668  160.0866  135.1725 H   0  0  0  0  0  0  0  0  0  0  0  0
  140.8530  159.4713  136.6077 H   0  0  0  0  0  0  0  0  0  0  0  0
  143.8276  157.0791  134.1256 H   0  0  0  0  0  0  0  0  0  0  0  0
  147.9164  154.0777  134.7016 H   0  0  0  0  0  0  0  0  0  0  0  0
  146.8693  153.9642  133.2384 H   0  0  0  0  0  0  0  0  0  0  0  0
  1  2  1  0
  2  3  2  0
  2  4  1  0
  4  5  2  0
  5  6  1  0
  6  7  2  0
  7  8  1  0
  8  9  2  0
  9 10  1  0
 10 11  1  0
 11 12  1  0
 12 13  1  0
 12 14  1  0
 12 15  1  0
  9 16  1  0
 16 17  2  0
 17 18  1  0
 18 19  1  0
 19 20  2  0
 19 21  1  0
 21 22  1  0
 22 23  1  0
 23 24  2  0
 23 25  1  0
 18  4  1  0
 17  6  1  0
 15 10  1  0
  1 26  1  0
  1 27  1  0
  5 28  1  0
  7 29  1  0
  8 30  1  0
 11 31  1  0
 11 32  1  0
 15 33  1  0
 15 34  1  0
 16 35  1  0
 22 36  1  0
 22 37  1  0
M  CHG  1  25  -1
M  END
>  <UniqueID>  (37) 
37

>  <SMILES>  (37) 
NC(=O)c1cc2ccc(N3CC(F)(F)C3)cc2n1C(=O)OCC(=O)[O-]

>  <Energy>  (37) 
120.28639507493143

>  <Genealogy>  (37) 
NC(=O)c1cc2ccc(N3CC(F)(F)C3)cc2n1C(=O)OCC(=O)[O-] (protonated)
NC(=O)c1cc2ccc(N3CC(F)(F)C3)cc2n1C(=O)OCC(=O)[O-] (3D coordinates assigned)
NC(=O)c1cc2ccc(N3CC(F)(F)C3)cc2n1C(=O)OCC(=O)[O-] (nonaromatic ring conformer: 120.28639507493143 kcal/mol)

>  <smiles>  (37) 
NC(=O)c1cc2ccc(N3CC(F)(F)C3)cc2n1C(=O)OCC(=O)O

>  <score_type>  (37) 
oracle

>  <origin>  (37) 
adg

>  <m_score__min__energy>  (37) 
-6.5

>  <m_primary>  (37) 
energy

$$$$
38:0
     RDKit          3D

 46 47  0  0  0  0  0  0  0  0999 V2000
  140.9050  159.3340  136.6760 C   0  0  0  0  0  0  0  0  0  0  0  0
  140.2790  158.8350  135.3820 C   0  0  0  0  0  0  0  0  0  0  0  0
  140.7280  159.6410  134.3210 O   0  0  0  0  0  0  0  0  0  0  0  0
  139.9130  159.1740  132.8960 P   0  0  0  0  0  0  0  0  0  0  0  0
  138.8090  158.2050  133.2610 O   0  0  0  0  0  0  0  0  0  0  0  0
  139.2570  160.5460  132.1150 O   0  0  0  0  0  0  0  0  0  0  0  0
  138.8920  160.1830  130.8040 C   0  0  0  0  0  0  0  0  0  0  0  0
  137.3790  160.0510  130.7310 C   0  0  0  0  0  0  0  0  0  0  0  0
  141.0240  158.3800  131.8690 O   0  0  0  0  0  0  0  0  0  0  0  0
  141.7980  157.4800  132.6300 C   0  0  0  0  0  0  0  0  0  0  0  0
  143.1730  157.8550  132.6120 O   0  0  0  0  0  0  0  0  0  0  0  0
  143.8230  158.4490  133.6950 C   0  0  0  0  0  0  0  0  0  0  0  0
  143.2600  158.4970  134.8220 O   0  0  0  0  0  0  0  0  0  0  0  0
  145.1300  159.0210  133.5130 N   0  0  0  0  0  0  0  0  0  0  0  0
  145.4780  160.3400  133.5310 C   0  0  0  0  0  0  0  0  0  0  0  0
  144.5930  161.4710  133.8770 C   0  0  0  0  0  0  0  0  0  0  0  0
  143.1780  161.3550  133.7660 N   0  0  0  0  0  0  0  0  0  0  0  0
  145.0920  162.5340  134.3350 O   0  0  0  0  0  0  0  0  0  0  0  0
  146.8400  160.4920  133.2850 C   0  0  0  0  0  0  0  0  0  0  0  0
  147.3290  159.2150  133.1380 C   0  0  0  0  0  0  0  0  0  0  0  0
  148.6290  158.7790  132.8990 C   0  0  0  0  0  0  0  0  0  0  0  0
  148.8510  157.3960  132.7940 C   0  0  0  0  0  0  0  0  0  0  0  0
  147.7790  156.4820  132.9310 C   0  0  0  0  0  0  0  0  0  0  0  0
  148.0220  155.0100  132.7820 C   0  0  0  0  0  0  0  0  0  0  0  0
  146.4690  156.9620  133.1500 C   0  0  0  0  0  0  0  0  0  0  0  0
  146.2790  158.3440  133.2780 C   0  0  0  0  0  0  0  0  0  0  0  0
  140.3662  158.9045  137.5334 H   0  0  0  0  0  0  0  0  0  0  0  0
  141.9605  159.0268  136.7150 H   0  0  0  0  0  0  0  0  0  0  0  0
  140.8408  160.4314  136.7150 H   0  0  0  0  0  0  0  0  0  0  0  0
  140.5777  157.7912  135.2053 H   0  0  0  0  0  0  0  0  0  0  0  0
  139.1825  158.8873  135.4529 H   0  0  0  0  0  0  0  0  0  0  0  0
  139.2292  160.9574  130.0993 H   0  0  0  0  0  0  0  0  0  0  0  0
  139.3623  159.2246  130.5387 H   0  0  0  0  0  0  0  0  0  0  0  0
  136.9645  160.0148  131.7493 H   0  0  0  0  0  0  0  0  0  0  0  0
  136.9609  160.9161  130.1955 H   0  0  0  0  0  0  0  0  0  0  0  0
  137.1170  159.1266  130.1955 H   0  0  0  0  0  0  0  0  0  0  0  0
  141.4369  157.4829  133.6690 H   0  0  0  0  0  0  0  0  0  0  0  0
  141.7007  156.4748  132.1939 H   0  0  0  0  0  0  0  0  0  0  0  0
  142.6960  160.4500  133.9640 H   0  0  0  0  0  0  0  0  0  0  0  0
  147.4050  161.4337  133.2217 H   0  0  0  0  0  0  0  0  0  0  0  0
  149.4572  159.4955  132.7955 H   0  0  0  0  0  0  0  0  0  0  0  0
  149.8670  157.0199  132.6036 H   0  0  0  0  0  0  0  0  0  0  0  0
  148.0982  154.5483  133.7775 H   0  0  0  0  0  0  0  0  0  0  0  0
  147.1869  154.5546  132.2296 H   0  0  0  0  0  0  0  0  0  0  0  0
  148.9592  154.8471  132.2296 H   0  0  0  0  0  0  0  0  0  0  0  0
  145.6186  156.2676  133.2184 H   0  0  0  0  0  0  0  0  0  0  0  0
  1  2  1  0
  2  3  1  0
  3  4  1  0
  4  5  2  0
  4  6  1  0
  6  7  1  0
  7  8  1  0
  4  9  1  0
  9 10  1  0
 10 11  1  0
 11 12  1  0
 12 13  2  0
 12 14  1  0
 14 15  1  0
 15 16  1  0
 16 17  1  0
 16 18  2  0
 15 19  2  0
 19 20  1  0
 20 21  2  0
 21 22  1  0
 22 23  2  0
 23 24  1  0
 23 25  1  0
 25 26  2  0
 26 14  1  0
 26 20  1  0
  1 27  1  0
  1 28  1  0
  1 29  1  0
  2 30  1  0
  2 31  1  0
  7 32  1  0
  7 33  1  0
  8 34  1  0
  8 35  1  0
  8 36  1  0
 10 37  1  0
 10 38  1  0
 17 39  1  0
 19 40  1  0
 21 41  1  0
 22 42  1  0
 24 43  1  0
 24 44  1  0
 24 45  1  0
 25 46  1  0
M  CHG  1  17  -1
M  END
>  <UniqueID>  (38) 
38

>  <SMILES>  (38) 
CCOP(=O)(OCC)OCOC(=O)n1c(C([NH-])=O)cc2ccc(C)cc21

>  <Energy>  (38) 
72.64525910118691

>  <Genealogy>  (38) 
CCOP(=O)(OCC)OCOC(=O)n1c(C([NH-])=O)cc2ccc(C)cc21 (protonated)
CCOP(=O)(OCC)OCOC(=O)n1c(C([NH-])=O)cc2ccc(C)cc21 (3D coordinates assigned)
CCOP(=O)(OCC)OCOC(=O)n1c(C([NH-])=O)cc2ccc(C)cc21 (optimized conformer: 72.64525910118691 kcal/mol)

>  <smiles>  (38) 
CCOP(=O)(OCC)OCOC(=O)n1c(C(N)=O)cc2ccc(C)cc21

>  <score_type>  (38) 
oracle

>  <origin>  (38) 
adg

>  <m_score__min__energy>  (38) 
-6.96

>  <m_primary>  (38) 
energy

$$$$
39:0
     RDKit          3D

 41 42  0  0  0  0  0  0  0  0999 V2000
  150.7720  150.3480  130.4280 C   0  0  0  0  0  0  0  0  0  0  0  0
  149.4090  150.7480  130.4990 O   0  0  0  0  0  0  0  0  0  0  0  0
  148.8810  151.4280  131.6000 C   0  0  0  0  0  0  0  0  0  0  0  0
  147.7720  151.0890  132.0950 O   0  0  0  0  0  0  0  0  0  0  0  0
  149.6590  152.5470  132.2170 C   0  0  0  0  0  0  0  0  0  0  0  0
  148.7780  153.4990  132.8100 O   0  0  0  0  0  0  0  0  0  0  0  0
  148.9020  154.8810  132.6190 C   0  0  0  0  0  0  0  0  0  0  0  0
  149.9990  155.3760  132.2390 O   0  0  0  0  0  0  0  0  0  0  0  0
  147.7770  155.7390  132.8670 N   0  0  0  0  0  0  0  0  0  0  0  0
  146.6050  155.4130  133.4800 C   0  0  0  0  0  0  0  0  0  0  0  0
  146.1860  154.0530  133.8740 C   0  0  0  0  0  0  0  0  0  0  0  0
  146.4250  152.9290  133.0260 N   0  0  0  0  0  0  0  0  0  0  0  0
  145.5580  153.8890  134.9540 O   0  0  0  0  0  0  0  0  0  0  0  0
  145.8050  156.5410  133.6430 C   0  0  0  0  0  0  0  0  0  0  0  0
  146.5240  157.5770  133.0920 C   0  0  0  0  0  0  0  0  0  0  0  0
  146.2080  158.9280  132.9920 C   0  0  0  0  0  0  0  0  0  0  0  0
  147.1550  159.7840  132.4060 C   0  0  0  0  0  0  0  0  0  0  0  0
  148.3990  159.2820  131.9400 C   0  0  0  0  0  0  0  0  0  0  0  0
  149.4290  160.2080  131.3200 C   0  0  0  0  0  0  0  0  0  0  0  0
  148.8490  161.6090  131.0990 C   0  0  0  0  0  0  0  0  0  0  0  0
  149.9800  159.6250  130.0130 C   0  0  0  0  0  0  0  0  0  0  0  0
  148.6810  157.9010  132.0630 C   0  0  0  0  0  0  0  0  0  0  0  0
  147.7110  157.0690  132.6320 C   0  0  0  0  0  0  0  0  0  0  0  0
  151.1731  150.2303  131.4455 H   0  0  0  0  0  0  0  0  0  0  0  0
  150.8456  149.3904  129.8918 H   0  0  0  0  0  0  0  0  0  0  0  0
  151.3515  151.1140  129.8918 H   0  0  0  0  0  0  0  0  0  0  0  0
  150.3267  152.1403  132.9908 H   0  0  0  0  0  0  0  0  0  0  0  0
  150.2475  153.0462  131.4332 H   0  0  0  0  0  0  0  0  0  0  0  0
  146.7810  153.0540  132.0520 H   0  0  0  0  0  0  0  0  0  0  0  0
  146.1610  151.9690  133.3400 H   0  0  0  0  0  0  0  0  0  0  0  0
  144.8112  156.5929  134.1118 H   0  0  0  0  0  0  0  0  0  0  0  0
  145.2461  159.3140  133.3605 H   0  0  0  0  0  0  0  0  0  0  0  0
  146.9303  160.8562  132.3068 H   0  0  0  0  0  0  0  0  0  0  0  0
  150.2674  160.2994  132.0262 H   0  0  0  0  0  0  0  0  0  0  0  0
  148.6530  162.0824  132.0724 H   0  0  0  0  0  0  0  0  0  0  0  0
  149.5687  162.2187  130.5330 H   0  0  0  0  0  0  0  0  0  0  0  0
  147.9090  161.5316  130.5330 H   0  0  0  0  0  0  0  0  0  0  0  0
  150.7189  158.8432  130.2430 H   0  0  0  0  0  0  0  0  0  0  0  0
  149.1554  159.1899  129.4293 H   0  0  0  0  0  0  0  0  0  0  0  0
  150.4609  160.4237  129.4293 H   0  0  0  0  0  0  0  0  0  0  0  0
  149.6418  157.4906  131.7188 H   0  0  0  0  0  0  0  0  0  0  0  0
  1  2  1  0
  2  3  1  0
  3  4  2  0
  3  5  1  0
  5  6  1  0
  6  7  1  0
  7  8  2  0
  7  9  1  0
  9 10  1  0
 10 11  1  0
 11 12  1  0
 11 13  2  0
 10 14  2  0
 14 15  1  0
 15 16  2  0
 16 17  1  0
 17 18  2  0
 18 19  1  0
 19 20  1  0
 19 21  1  0
 18 22  1  0
 22 23  2  0
 23  9  1  0
 23 15  1  0
  1 24  1  0
  1 25  1  0
  1 26  1  0
  5 27  1  0
  5 28  1  0
 12 29  1  0
 12 30  1  0
 14 31  1  0
 16 32  1  0
 17 33  1  0
 19 34  1  0
 20 35  1  0
 20 36  1  0
 20 37  1  0
 21 38  1  0
 21 39  1  0
 21 40  1  0
 22 41  1  0
M  END
>  <UniqueID>  (39) 
39

>  <SMILES>  (39) 
COC(=O)COC(=O)n1c(C(N)=O)cc2ccc(C(C)C)cc21

>  <Energy>  (39) 
71.56374312818014

>  <Genealogy>  (39) 
COC(=O)COC(=O)n1c(C(N)=O)cc2ccc(C(C)C)cc21 (3D coordinates assigned)
COC(=O)COC(=O)n1c(C(N)=O)cc2ccc(C(C)C)cc21 (optimized conformer: 71.56374312818014 kcal/mol)

>  <smiles>  (39) 
COC(=O)COC(=O)n1c(C(N)=O)cc2ccc(C(C)C)cc21

>  <score_type>  (39) 
oracle

>  <origin>  (39) 
adg

>  <m_score__min__energy>  (39) 
-7.04

>  <m_primary>  (39) 
energy

$$$$
40:0
     RDKit          3D

 28 29  0  0  0  0  0  0  0  0999 V2000
  141.5380  160.9600  133.6700 N   0  0  0  0  0  0  0  0  0  0  0  0
  142.3450  160.1070  134.4760 C   0  0  0  0  0  0  0  0  0  0  0  0
  141.8580  159.6070  135.5250 O   0  0  0  0  0  0  0  0  0  0  0  0
  143.7210  159.7540  134.0690 C   0  0  0  0  0  0  0  0  0  0  0  0
  144.1310  158.4490  133.8100 C   0  0  0  0  0  0  0  0  0  0  0  0
  145.4310  158.5540  133.3730 C   0  0  0  0  0  0  0  0  0  0  0  0
  146.3270  157.5630  132.9820 C   0  0  0  0  0  0  0  0  0  0  0  0
  147.6200  157.9580  132.5990 C   0  0  0  0  0  0  0  0  0  0  0  0
  147.9970  159.3230  132.6310 C   0  0  0  0  0  0  0  0  0  0  0  0
  149.3800  159.7330  132.1990 C   0  0  0  0  0  0  0  0  0  0  0  0
  149.3990  160.1870  130.7370 C   0  0  0  0  0  0  0  0  0  0  0  0
  149.0770  161.5500  130.6370 O   0  0  0  0  0  0  0  0  0  0  0  0
  147.0580  160.3030  133.0270 C   0  0  0  0  0  0  0  0  0  0  0  0
  145.7710  159.8820  133.3840 C   0  0  0  0  0  0  0  0  0  0  0  0
  144.7300  160.6330  133.8120 N   0  0  0  0  0  0  0  0  0  0  0  0
  144.7390  162.0520  134.0390 C   0  0  0  0  0  0  0  0  0  0  0  0
  145.5480  162.5600  134.8590 O   0  0  0  0  0  0  0  0  0  0  0  0
  143.8350  162.8750  133.3770 O   0  0  0  0  0  0  0  0  0  0  0  0
  141.9000  161.8790  133.3330 H   0  0  0  0  0  0  0  0  0  0  0  0
  143.5404  157.5288  133.9295 H   0  0  0  0  0  0  0  0  0  0  0  0
  146.0319  156.5034  132.9731 H   0  0  0  0  0  0  0  0  0  0  0  0
  148.3464  157.1998  132.2712 H   0  0  0  0  0  0  0  0  0  0  0  0
  149.7222  160.5624  132.8354 H   0  0  0  0  0  0  0  0  0  0  0  0
  150.0453  158.8627  132.2991 H   0  0  0  0  0  0  0  0  0  0  0  0
  150.4036  160.0217  130.3205 H   0  0  0  0  0  0  0  0  0  0  0  0
  148.6530  159.6050  130.1759 H   0  0  0  0  0  0  0  0  0  0  0  0
  148.3900  161.6310  129.9260 H   0  0  0  0  0  0  0  0  0  0  0  0
  147.3312  161.3682  133.0539 H   0  0  0  0  0  0  0  0  0  0  0  0
  1  2  1  0
  2  3  2  0
  2  4  1  0
  4  5  2  0
  5  6  1  0
  6  7  2  0
  7  8  1  0
  8  9  2  0
  9 10  1  0
 10 11  1  0
 11 12  1  0
  9 13  1  0
 13 14  2  0
 14 15  1  0
 15 16  1  0
 16 17  2  0
 16 18  1  0
 15  4  1  0
 14  6  1  0
  1 19  1  0
  5 20  1  0
  7 21  1  0
  8 22  1  0
 10 23  1  0
 10 24  1  0
 11 25  1  0
 11 26  1  0
 12 27  1  0
 13 28  1  0
M  CHG  2   1  -1  18  -1
M  END
>  <UniqueID>  (40) 
40

>  <SMILES>  (40) 
[NH-]C(=O)c1cc2ccc(CCO)cc2n1C(=O)[O-]

>  <Energy>  (40) 
65.62256321616907

>  <Genealogy>  (40) 
[NH-]C(=O)c1cc2ccc(CCO)cc2n1C(=O)[O-] (protonated)
[NH-]C(=O)c1cc2ccc(CCO)cc2n1C(=O)[O-] (3D coordinates assigned)
[NH-]C(=O)c1cc2ccc(CCO)cc2n1C(=O)[O-] (optimized conformer: 65.62256321616907 kcal/mol)

>  <smiles>  (40) 
NC(=O)c1cc2ccc(CCO)cc2n1C(=O)O

>  <score_type>  (40) 
oracle

>  <origin>  (40) 
adg

>  <m_score__min__energy>  (40) 
-6.2300000000000004

>  <m_primary>  (40) 
energy

$$$$
41:0
     RDKit          3D

 42 43  0  0  0  0  0  0  0  0999 V2000
  145.2220  153.3460  133.8110 C   0  0  0  0  0  0  0  0  0  0  0  0
  143.9060  153.3790  133.1540 N   0  0  0  0  0  0  0  0  0  0  0  0
  143.9680  154.0990  131.8720 C   0  0  0  0  0  0  0  0  0  0  0  0
  143.3780  152.0380  132.9780 C   0  0  0  0  0  0  0  0  0  0  0  0
  144.0710  151.1870  132.4370 O   0  0  0  0  0  0  0  0  0  0  0  0
  141.9820  151.6560  133.4180 C   0  0  0  0  0  0  0  0  0  0  0  0
  140.9380  152.5590  132.7580 C   0  0  0  0  0  0  0  0  0  0  0  0
  141.2280  153.9290  133.0230 O   0  0  0  0  0  0  0  0  0  0  0  0
  140.2440  154.8950  133.2580 C   0  0  0  0  0  0  0  0  0  0  0  0
  139.0360  154.6580  132.9780 O   0  0  0  0  0  0  0  0  0  0  0  0
  140.6080  156.1530  133.8450 N   0  0  0  0  0  0  0  0  0  0  0  0
  141.4060  156.3750  134.9280 C   0  0  0  0  0  0  0  0  0  0  0  0
  141.9450  155.3430  135.8370 C   0  0  0  0  0  0  0  0  0  0  0  0
  142.7990  154.3100  135.3530 N   0  0  0  0  0  0  0  0  0  0  0  0
  141.6100  155.3460  137.0520 O   0  0  0  0  0  0  0  0  0  0  0  0
  141.5910  157.7420  135.1240 C   0  0  0  0  0  0  0  0  0  0  0  0
  140.8700  158.3560  134.1250 C   0  0  0  0  0  0  0  0  0  0  0  0
  140.7040  159.7070  133.8430 C   0  0  0  0  0  0  0  0  0  0  0  0
  139.9220  160.0560  132.7290 C   0  0  0  0  0  0  0  0  0  0  0  0
  139.3450  159.0550  131.9040 C   0  0  0  0  0  0  0  0  0  0  0  0
  138.4790  159.4420  130.7320 C   0  0  0  0  0  0  0  0  0  0  0  0
  137.1500  159.2920  131.0810 F   0  0  0  0  0  0  0  0  0  0  0  0
  138.7060  160.7580  130.3710 F   0  0  0  0  0  0  0  0  0  0  0  0
  138.7520  158.6400  129.6370 F   0  0  0  0  0  0  0  0  0  0  0  0
  139.5210  157.6920  132.2380 C   0  0  0  0  0  0  0  0  0  0  0  0
  140.2880  157.3750  133.3660 C   0  0  0  0  0  0  0  0  0  0  0  0
  145.0870  153.3494  134.9027 H   0  0  0  0  0  0  0  0  0  0  0  0
  145.7589  152.4341  133.5108 H   0  0  0  0  0  0  0  0  0  0  0  0
  145.8040  154.2298  133.5108 H   0  0  0  0  0  0  0  0  0  0  0  0
  143.2570  153.9140  133.7810 H   0  0  0  0  0  0  0  0  0  0  0  0
  144.0610  155.1785  132.0618 H   0  0  0  0  0  0  0  0  0  0  0  0
  144.8395  153.7513  131.2979 H   0  0  0  0  0  0  0  0  0  0  0  0
  143.0499  153.9054  131.2979 H   0  0  0  0  0  0  0  0  0  0  0  0
  141.7872  150.6116  133.1331 H   0  0  0  0  0  0  0  0  0  0  0  0
  141.9115  151.7748  134.5093 H   0  0  0  0  0  0  0  0  0  0  0  0
  140.9477  152.3901  131.6711 H   0  0  0  0  0  0  0  0  0  0  0  0
  139.9465  152.3180  133.1689 H   0  0  0  0  0  0  0  0  0  0  0  0
  142.4220  153.5310  134.7690 H   0  0  0  0  0  0  0  0  0  0  0  0
  142.1871  158.2278  135.9106 H   0  0  0  0  0  0  0  0  0  0  0  0
  141.1705  160.4791  134.4725 H   0  0  0  0  0  0  0  0  0  0  0  0
  139.7549  161.1174  132.4933 H   0  0  0  0  0  0  0  0  0  0  0  0
  139.0660  156.8993  131.6260 H   0  0  0  0  0  0  0  0  0  0  0  0
  1  2  1  0
  2  3  1  0
  2  4  1  0
  4  5  2  0
  4  6  1  0
  6  7  1  0
  7  8  1  0
  8  9  1  0
  9 10  2  0
  9 11  1  0
 11 12  1  0
 12 13  1  0
 13 14  1  0
 13 15  2  0
 12 16  2  0
 16 17  1  0
 17 18  2  0
 18 19  1  0
 19 20  2  0
 20 21  1  0
 21 22  1  0
 21 23  1  0
 21 24  1  0
 20 25  1  0
 25 26  2  0
 26 11  1  0
 26 17  1  0
  1 27  1  0
  1 28  1  0
  1 29  1  0
  2 30  1  0
  3 31  1  0
  3 32  1  0
  3 33  1  0
  6 34  1  0
  6 35  1  0
  7 36  1  0
  7 37  1  0
 14 38  1  0
 16 39  1  0
 18 40  1  0
 19 41  1  0
 25 42  1  0
M  CHG  2   2   1  14  -1
M  END
>  <UniqueID>  (41) 
41

>  <SMILES>  (41) 
C[NH+](C)C(=O)CCOC(=O)n1c(C([NH-])=O)cc2ccc(C(F)(F)F)cc21

>  <Energy>  (41) 
77.71456382618814

>  <Genealogy>  (41) 
C[NH+](C)C(=O)CCOC(=O)n1c(C([NH-])=O)cc2ccc(C(F)(F)F)cc21 (protonated)
C[NH+](C)C(=O)CCOC(=O)n1c(C([NH-])=O)cc2ccc(C(F)(F)F)cc21 (3D coordinates assigned)
C[NH+](C)C(=O)CCOC(=O)n1c(C([NH-])=O)cc2ccc(C(F)(F)F)cc21 (optimized conformer: 77.71456382618814 kcal/mol)

>  <smiles>  (41) 
CN(C)C(=O)CCOC(=O)n1c(C(N)=O)cc2ccc(C(F)(F)F)cc21

>  <score_type>  (41) 
oracle

>  <origin>  (41) 
adg

>  <m_score__min__energy>  (41) 
-4.79

>  <m_primary>  (41) 
energy

$$$$
42:0
     RDKit          3D

 41 43  0  0  0  0  0  0  0  0999 V2000
  148.5320  153.3050  133.2450 C   0  0  0  0  0  0  0  0  0  0  0  0
  147.3980  154.1590  132.8820 N   0  0  0  0  0  0  0  0  0  0  0  0
  146.0540  153.6140  132.8080 C   0  0  0  0  0  0  0  0  0  0  0  0
  147.6630  155.5250  132.6310 C   0  0  0  0  0  0  0  0  0  0  0  0
  148.8590  155.9190  132.7110 O   0  0  0  0  0  0  0  0  0  0  0  0
  146.6430  156.4370  132.2930 O   0  0  0  0  0  0  0  0  0  0  0  0
  145.8170  156.9120  133.2520 C   0  0  0  0  0  0  0  0  0  0  0  0
  145.1760  156.1090  133.9780 O   0  0  0  0  0  0  0  0  0  0  0  0
  145.6780  158.3140  133.4310 N   0  0  0  0  0  0  0  0  0  0  0  0
  146.6270  159.2900  133.5900 C   0  0  0  0  0  0  0  0  0  0  0  0
  148.1420  159.1710  133.6270 C   0  0  0  0  0  0  0  0  0  0  0  0
  148.8530  158.1360  134.2780 N   0  0  0  0  0  0  0  0  0  0  0  0
  148.7750  160.0390  133.0450 O   0  0  0  0  0  0  0  0  0  0  0  0
  146.0140  160.5060  133.7280 C   0  0  0  0  0  0  0  0  0  0  0  0
  144.6630  160.2940  133.6550 C   0  0  0  0  0  0  0  0  0  0  0  0
  143.6160  161.2380  133.7440 C   0  0  0  0  0  0  0  0  0  0  0  0
  142.3190  160.7720  133.6390 C   0  0  0  0  0  0  0  0  0  0  0  0
  142.0780  159.4150  133.4530 C   0  0  0  0  0  0  0  0  0  0  0  0
  140.6820  158.9530  133.3470 C   0  0  0  0  0  0  0  0  0  0  0  0
  139.9840  158.1290  134.1490 C   0  0  0  0  0  0  0  0  0  0  0  0
  138.7120  157.9950  133.6380 N   0  0  0  0  0  0  0  0  0  0  0  0
  138.7130  158.7540  132.5420 C   0  0  0  0  0  0  0  0  0  0  0  0
  137.2610  158.9920  131.3750 P   0  0  0  0  0  0  0  0  0  0  0  0
  139.8790  159.3520  132.3220 N   0  0  0  0  0  0  0  0  0  0  0  0
  143.1530  158.4970  133.3690 C   0  0  0  0  0  0  0  0  0  0  0  0
  144.4770  159.0080  133.4810 C   0  0  0  0  0  0  0  0  0  0  0  0
  148.6105  153.2458  134.3406 H   0  0  0  0  0  0  0  0  0  0  0  0
  148.3781  152.2966  132.8334 H   0  0  0  0  0  0  0  0  0  0  0  0
  149.4587  153.7315  132.8334 H   0  0  0  0  0  0  0  0  0  0  0  0
  145.6657  153.4565  133.8251 H   0  0  0  0  0  0  0  0  0  0  0  0
  145.4016  154.3186  132.2714 H   0  0  0  0  0  0  0  0  0  0  0  0
  146.0766  152.6540  132.2714 H   0  0  0  0  0  0  0  0  0  0  0  0
  149.1840  158.2570  135.2630 H   0  0  0  0  0  0  0  0  0  0  0  0
  149.1030  157.3030  133.6970 H   0  0  0  0  0  0  0  0  0  0  0  0
  146.5144  161.4751  133.8712 H   0  0  0  0  0  0  0  0  0  0  0  0
  143.8257  162.3077  133.8919 H   0  0  0  0  0  0  0  0  0  0  0  0
  141.4759  161.4757  133.7027 H   0  0  0  0  0  0  0  0  0  0  0  0
  140.3650  157.6438  135.0597 H   0  0  0  0  0  0  0  0  0  0  0  0
  137.6590  158.8740  129.9890 H   0  0  0  0  0  0  0  0  0  0  0  0
  136.1440  158.1600  131.7150 H   0  0  0  0  0  0  0  0  0  0  0  0
  142.9706  157.4223  133.2218 H   0  0  0  0  0  0  0  0  0  0  0  0
  1  2  1  0
  2  3  1  0
  2  4  1  0
  4  5  2  0
  4  6  1  0
  6  7  1  0
  7  8  2  0
  7  9  1  0
  9 10  1  0
 10 11  1  0
 11 12  1  0
 11 13  2  0
 10 14  2  0
 14 15  1  0
 15 16  2  0
 16 17  1  0
 17 18  2  0
 18 19  1  0
 19 20  2  0
 20 21  1  0
 21 22  2  0
 22 23  1  0
 22 24  1  0
 18 25  1  0
 25 26  2  0
 26  9  1  0
 26 15  1  0
 24 19  1  0
  1 27  1  0
  1 28  1  0
  1 29  1  0
  3 30  1  0
  3 31  1  0
  3 32  1  0
 12 33  1  0
 12 34  1  0
 14 35  1  0
 16 36  1  0
 17 37  1  0
 20 38  1  0
 23 39  1  0
 23 40  1  0
 25 41  1  0
M  CHG  1  24  -1
M  END
>  <UniqueID>  (42) 
42

>  <SMILES>  (42) 
CN(C)C(=O)OC(=O)n1c(C(N)=O)cc2ccc(-c3cnc([P@@H2])[n-]3)cc21

>  <Energy>  (42) 
165.2229546274033

>  <Genealogy>  (42) 
CN(C)C(=O)OC(=O)n1c(C(N)=O)cc2ccc(-c3cnc(P)[n-]3)cc21 (protonated)
CN(C)C(=O)OC(=O)n1c(C(N)=O)cc2ccc(-c3cnc([P@@H2])[n-]3)cc21 (chirality)
CN(C)C(=O)OC(=O)n1c(C(N)=O)cc2ccc(-c3cnc([P@@H2])[n-]3)cc21 (3D coordinates assigned)
CN(C)C(=O)OC(=O)n1c(C(N)=O)cc2ccc(-c3cnc([P@@H2])[n-]3)cc21 (optimized conformer: 165.2229546274033 kcal/mol)

>  <smiles>  (42) 
CN(C)C(=O)OC(=O)n1c(C(N)=O)cc2ccc(-c3cnc(P)[nH]3)cc21

>  <score_type>  (42) 
oracle

>  <origin>  (42) 
adg

>  <m_score__min__energy>  (42) 
-8.7200000000000006

>  <m_primary>  (42) 
energy

$$$$
43:0
     RDKit          3D

 40 42  0  0  0  0  0  0  0  0999 V2000
  148.8050  154.1170  132.6070 C   0  0  0  0  0  0  0  0  0  0  0  0
  147.6150  154.5020  133.0690 C   0  0  0  0  0  0  0  0  0  0  0  0
  147.2990  155.8380  133.3580 O   0  0  0  0  0  0  0  0  0  0  0  0
  146.0650  156.4560  133.1130 C   0  0  0  0  0  0  0  0  0  0  0  0
  145.1130  155.8050  132.6030 O   0  0  0  0  0  0  0  0  0  0  0  0
  145.9070  157.8560  133.3960 N   0  0  0  0  0  0  0  0  0  0  0  0
  146.8960  158.7860  133.5180 C   0  0  0  0  0  0  0  0  0  0  0  0
  148.3450  158.5070  133.5510 C   0  0  0  0  0  0  0  0  0  0  0  0
  148.9540  157.6350  132.5980 N   0  0  0  0  0  0  0  0  0  0  0  0
  149.0500  159.0050  134.4700 O   0  0  0  0  0  0  0  0  0  0  0  0
  146.3580  160.0610  133.6610 C   0  0  0  0  0  0  0  0  0  0  0  0
  144.9940  159.8840  133.6370 C   0  0  0  0  0  0  0  0  0  0  0  0
  143.9720  160.8210  133.7260 C   0  0  0  0  0  0  0  0  0  0  0  0
  142.6480  160.3640  133.6330 C   0  0  0  0  0  0  0  0  0  0  0  0
  142.3600  158.9840  133.4430 C   0  0  0  0  0  0  0  0  0  0  0  0
  140.9920  158.5270  133.3350 N   0  0  0  0  0  0  0  0  0  0  0  0
  140.5370  157.2100  133.7590 C   0  0  0  0  0  0  0  0  0  0  0  0
  139.0920  157.0980  133.2930 C   0  0  0  0  0  0  0  0  0  0  0  0
  138.6310  158.5310  133.0440 C   0  0  2  0  0  0  0  0  0  0  0  0
  137.7590  158.5880  131.9480 O   0  0  0  0  0  0  0  0  0  0  0  0
  139.9070  159.3280  132.7840 C   0  0  0  0  0  0  0  0  0  0  0  0
  143.4360  158.0650  133.3560 C   0  0  0  0  0  0  0  0  0  0  0  0
  144.7460  158.5460  133.4740 C   0  0  0  0  0  0  0  0  0  0  0  0
  148.9962  153.0541  132.3978 H   0  0  0  0  0  0  0  0  0  0  0  0
  149.5956  154.8623  132.4350 H   0  0  0  0  0  0  0  0  0  0  0  0
  146.8436  153.7349  133.2315 H   0  0  0  0  0  0  0  0  0  0  0  0
  149.9860  157.4850  132.6090 H   0  0  0  0  0  0  0  0  0  0  0  0
  148.3760  157.0760  131.9320 H   0  0  0  0  0  0  0  0  0  0  0  0
  146.9063  161.0084  133.7700 H   0  0  0  0  0  0  0  0  0  0  0  0
  144.1938  161.8894  133.8652 H   0  0  0  0  0  0  0  0  0  0  0  0
  141.8201  161.0844  133.7082 H   0  0  0  0  0  0  0  0  0  0  0  0
  141.1511  156.4249  133.2937 H   0  0  0  0  0  0  0  0  0  0  0  0
  140.6209  157.0851  134.8487 H   0  0  0  0  0  0  0  0  0  0  0  0
  139.0316  156.5084  132.3663 H   0  0  0  0  0  0  0  0  0  0  0  0
  138.4615  156.5904  134.0378 H   0  0  0  0  0  0  0  0  0  0  0  0
  138.0720  158.9390  133.8990 H   0  0  0  0  0  0  0  0  0  0  0  0
  137.0670  157.8940  132.1020 H   0  0  0  0  0  0  0  0  0  0  0  0
  140.0517  159.4785  131.7040 H   0  0  0  0  0  0  0  0  0  0  0  0
  139.8637  160.3253  133.2461 H   0  0  0  0  0  0  0  0  0  0  0  0
  143.2453  156.9931  133.1986 H   0  0  0  0  0  0  0  0  0  0  0  0
  1  2  2  0
  2  3  1  0
  3  4  1  0
  4  5  2  0
  4  6  1  0
  6  7  1  0
  7  8  1  0
  8  9  1  0
  8 10  2  0
  7 11  2  0
 11 12  1  0
 12 13  2  0
 13 14  1  0
 14 15  2  0
 15 16  1  0
 16 17  1  0
 17 18  1  0
 18 19  1  0
 19 20  1  0
 19 21  1  0
 15 22  1  0
 22 23  2  0
 23  6  1  0
 23 12  1  0
 21 16  1  0
  1 24  1  0
  1 25  1  0
  2 26  1  0
  9 27  1  0
  9 28  1  0
 11 29  1  0
 13 30  1  0
 14 31  1  0
 17 32  1  0
 17 33  1  0
 18 34  1  0
 18 35  1  0
 19 36  1  1
 20 37  1  0
 21 38  1  0
 21 39  1  0
 22 40  1  0
M  END
>  <UniqueID>  (43) 
43

>  <SMILES>  (43) 
C=COC(=O)n1c(C(N)=O)cc2ccc(N3CC[C@H](O)C3)cc21

>  <Energy>  (43) 
85.71830397638033

>  <Genealogy>  (43) 
C=COC(=O)n1c(C(N)=O)cc2ccc(N3CC[C@H](O)C3)cc21 (chirality)
C=COC(=O)n1c(C(N)=O)cc2ccc(N3CC[C@H](O)C3)cc21 (3D coordinates assigned)
C=COC(=O)n1c(C(N)=O)cc2ccc(N3CC[C@H](O)C3)cc21 (nonaromatic ring conformer: 85.71830397638033 kcal/mol)

>  <smiles>  (43) 
C=COC(=O)n1c(C(N)=O)cc2ccc(N3CCC(O)C3)cc21

>  <score_type>  (43) 
oracle

>  <origin>  (43) 
adg

>  <m_score__min__energy>  (43) 
-7.4100000000000001

>  <m_primary>  (43) 
energy

$$$$
44:0
     RDKit          3D

 37 38  0  0  0  0  0  0  0  0999 V2000
  147.2850  153.0130  132.8520 C   0  0  0  0  0  0  0  0  0  0  0  0
  148.2560  154.0890  132.6150 N   0  0  0  0  0  0  0  0  0  0  0  0
  149.6310  153.7350  132.2390 C   0  0  0  0  0  0  0  0  0  0  0  0
  147.8680  155.4790  132.7660 C   0  0  0  0  0  0  0  0  0  0  0  0
  148.8420  156.5160  132.7110 C   0  0  0  0  0  0  0  0  0  0  0  0
  148.4800  157.8640  132.8800 C   0  0  0  0  0  0  0  0  0  0  0  0
  147.1390  158.1570  133.0950 C   0  0  0  0  0  0  0  0  0  0  0  0
  146.5230  159.3630  133.3320 C   0  0  0  0  0  0  0  0  0  0  0  0
  145.1740  159.0620  133.5100 C   0  0  0  0  0  0  0  0  0  0  0  0
  144.1340  160.0830  133.7580 C   0  0  0  0  0  0  0  0  0  0  0  0
  142.7870  159.8760  133.3440 N   0  0  0  0  0  0  0  0  0  0  0  0
  144.4450  161.1660  134.3200 O   0  0  0  0  0  0  0  0  0  0  0  0
  144.9670  157.7210  133.3830 N   0  0  0  0  0  0  0  0  0  0  0  0
  143.7420  156.9980  133.5780 C   0  0  0  0  0  0  0  0  0  0  0  0
  142.8110  157.1110  132.7370 O   0  0  0  0  0  0  0  0  0  0  0  0
  143.5570  156.1410  134.7580 C   0  0  0  0  0  0  0  0  0  0  0  0
  142.3940  155.8210  135.1280 O   0  0  0  0  0  0  0  0  0  0  0  0
  144.6990  155.6620  135.4760 N   0  0  0  0  0  0  0  0  0  0  0  0
  145.0640  154.2540  135.5250 C   0  0  0  0  0  0  0  0  0  0  0  0
  146.4470  154.1210  136.0720 C   0  0  0  0  0  0  0  0  0  0  0  0
  146.7730  153.0960  136.7280 O   0  0  0  0  0  0  0  0  0  0  0  0
  147.3650  155.1490  135.8980 O   0  0  0  0  0  0  0  0  0  0  0  0
  146.1790  157.1820  133.1330 C   0  0  0  0  0  0  0  0  0  0  0  0
  146.5110  155.8310  132.9870 C   0  0  0  0  0  0  0  0  0  0  0  0
  147.1547  152.8686  133.9347 H   0  0  0  0  0  0  0  0  0  0  0  0
  146.3197  153.2839  132.3994 H   0  0  0  0  0  0  0  0  0  0  0  0
  147.6533  152.0805  132.3994 H   0  0  0  0  0  0  0  0  0  0  0  0
  150.2314  153.5804  133.1477 H   0  0  0  0  0  0  0  0  0  0  0  0
  149.6218  152.8099  131.6439 H   0  0  0  0  0  0  0  0  0  0  0  0
  150.0696  154.5495  131.6439 H   0  0  0  0  0  0  0  0  0  0  0  0
  149.8964  156.2580  132.5331 H   0  0  0  0  0  0  0  0  0  0  0  0
  149.2356  158.6625  132.8431 H   0  0  0  0  0  0  0  0  0  0  0  0
  146.9951  160.3557  133.3726 H   0  0  0  0  0  0  0  0  0  0  0  0
  142.5590  159.2500  132.5410 H   0  0  0  0  0  0  0  0  0  0  0  0
  144.3588  153.7140  136.1739 H   0  0  0  0  0  0  0  0  0  0  0  0
  145.0263  153.8283  134.5114 H   0  0  0  0  0  0  0  0  0  0  0  0
  145.7336  155.0547  133.0425 H   0  0  0  0  0  0  0  0  0  0  0  0
  1  2  1  0
  2  3  1  0
  2  4  1  0
  4  5  2  0
  5  6  1  0
  6  7  2  0
  7  8  1  0
  8  9  2  0
  9 10  1  0
 10 11  1  0
 10 12  2  0
  9 13  1  0
 13 14  1  0
 14 15  2  0
 14 16  1  0
 16 17  2  0
 16 18  1  0
 18 19  1  0
 19 20  1  0
 20 21  2  0
 20 22  1  0
 13 23  1  0
 23 24  2  0
 24  4  1  0
 23  7  1  0
  1 25  1  0
  1 26  1  0
  1 27  1  0
  3 28  1  0
  3 29  1  0
  3 30  1  0
  5 31  1  0
  6 32  1  0
  8 33  1  0
 11 34  1  0
 19 35  1  0
 19 36  1  0
 24 37  1  0
M  CHG  3  11  -1  18  -1  22  -1
M  END
>  <UniqueID>  (44) 
44

>  <SMILES>  (44) 
CN(C)c1ccc2cc(C([NH-])=O)n(C(=O)C(=O)[N-]CC(=O)[O-])c2c1

>  <Energy>  (44) 
74.08548765797414

>  <Genealogy>  (44) 
CN(C)c1ccc2cc(C([NH-])=O)n(C(=O)C(=O)[N-]CC(=O)[O-])c2c1 (protonated)
CN(C)c1ccc2cc(C([NH-])=O)n(C(=O)C(=O)[N-]CC(=O)[O-])c2c1 (3D coordinates assigned)
CN(C)c1ccc2cc(C([NH-])=O)n(C(=O)C(=O)[N-]CC(=O)[O-])c2c1 (optimized conformer: 74.08548765797414 kcal/mol)

>  <smiles>  (44) 
CN(C)c1ccc2cc(C(N)=O)n(C(=O)C(=O)NCC(=O)O)c2c1

>  <score_type>  (44) 
oracle

>  <origin>  (44) 
adg

>  <m_score__min__energy>  (44) 
-6.4000000000000004

>  <m_primary>  (44) 
energy

$$$$
45:0
     RDKit          3D

 37 39  0  0  0  0  0  0  0  0999 V2000
  145.4810  160.0640  132.6310 N   0  0  0  0  0  0  0  0  0  0  0  0
  144.3570  159.8770  133.4930 C   0  0  0  0  0  0  0  0  0  0  0  0
  143.9030  160.8620  134.1360 O   0  0  0  0  0  0  0  0  0  0  0  0
  143.6780  158.5710  133.5950 C   0  0  0  0  0  0  0  0  0  0  0  0
  142.2950  158.4220  133.5540 C   0  0  0  0  0  0  0  0  0  0  0  0
  142.0730  157.0650  133.6030 C   0  0  0  0  0  0  0  0  0  0  0  0
  140.8770  156.3540  133.5940 C   0  0  0  0  0  0  0  0  0  0  0  0
  140.9410  154.9540  133.6810 C   0  0  0  0  0  0  0  0  0  0  0  0
  142.1910  154.2960  133.7990 C   0  0  0  0  0  0  0  0  0  0  0  0
  142.2500  152.7960  133.8750 C   0  0  0  0  0  0  0  0  0  0  0  0
  141.7320  152.3280  135.1970 C   0  0  0  0  0  0  0  0  0  0  0  0
  141.9450  153.0050  136.2370 O   0  0  0  0  0  0  0  0  0  0  0  0
  141.0560  151.1180  135.2900 O   0  0  0  0  0  0  0  0  0  0  0  0
  143.3850  155.0500  133.7970 C   0  0  0  0  0  0  0  0  0  0  0  0
  143.2930  156.4430  133.6830 C   0  0  0  0  0  0  0  0  0  0  0  0
  144.2910  157.3570  133.6810 N   0  0  0  0  0  0  0  0  0  0  0  0
  145.6950  157.0920  133.8410 C   0  0  0  0  0  0  0  0  0  0  0  0
  146.0990  156.4370  134.8410 O   0  0  0  0  0  0  0  0  0  0  0  0
  146.5990  157.5560  132.8780 O   0  0  0  0  0  0  0  0  0  0  0  0
  147.7870  158.2470  133.1480 C   0  0  0  0  0  0  0  0  0  0  0  0
  148.3740  158.1300  134.2570 O   0  0  0  0  0  0  0  0  0  0  0  0
  148.3550  159.1250  132.1200 C   0  0  0  0  0  0  0  0  0  0  0  0
  149.5990  158.9850  131.5390 C   0  0  0  0  0  0  0  0  0  0  0  0
  149.7050  160.0250  130.6410 C   0  0  0  0  0  0  0  0  0  0  0  0
  148.5230  160.7330  130.7310 C   0  0  0  0  0  0  0  0  0  0  0  0
  147.7380  160.1710  131.6220 O   0  0  0  0  0  0  0  0  0  0  0  0
  145.9720  160.9840  132.6020 H   0  0  0  0  0  0  0  0  0  0  0  0
  145.7740  159.3190  131.9610 H   0  0  0  0  0  0  0  0  0  0  0  0
  141.5398  159.2196  133.4950 H   0  0  0  0  0  0  0  0  0  0  0  0
  139.9100  156.8733  133.5209 H   0  0  0  0  0  0  0  0  0  0  0  0
  140.0135  154.3630  133.6574 H   0  0  0  0  0  0  0  0  0  0  0  0
  141.6350  152.3664  133.0705 H   0  0  0  0  0  0  0  0  0  0  0  0
  143.2946  152.4705  133.7619 H   0  0  0  0  0  0  0  0  0  0  0  0
  144.3637  154.5553  133.8829 H   0  0  0  0  0  0  0  0  0  0  0  0
  150.3481  158.2072  131.7485 H   0  0  0  0  0  0  0  0  0  0  0  0
  150.5594  160.2465  129.9846 H   0  0  0  0  0  0  0  0  0  0  0  0
  148.2762  161.6310  130.1457 H   0  0  0  0  0  0  0  0  0  0  0  0
  1  2  1  0
  2  3  2  0
  2  4  1  0
  4  5  2  0
  5  6  1  0
  6  7  2  0
  7  8  1  0
  8  9  2  0
  9 10  1  0
 10 11  1  0
 11 12  2  0
 11 13  1  0
  9 14  1  0
 14 15  2  0
 15 16  1  0
 16 17  1  0
 17 18  2  0
 17 19  1  0
 19 20  1  0
 20 21  2  0
 20 22  1  0
 22 23  2  0
 23 24  1  0
 24 25  2  0
 25 26  1  0
 16  4  1  0
 26 22  1  0
 15  6  1  0
  1 27  1  0
  1 28  1  0
  5 29  1  0
  7 30  1  0
  8 31  1  0
 10 32  1  0
 10 33  1  0
 14 34  1  0
 23 35  1  0
 24 36  1  0
 25 37  1  0
M  CHG  1  13  -1
M  END
>  <UniqueID>  (45) 
45

>  <SMILES>  (45) 
NC(=O)c1cc2ccc(CC(=O)[O-])cc2n1C(=O)OC(=O)c1ccco1

>  <Energy>  (45) 
102.2933301224672

>  <Genealogy>  (45) 
NC(=O)c1cc2ccc(CC(=O)[O-])cc2n1C(=O)OC(=O)c1ccco1 (protonated)
NC(=O)c1cc2ccc(CC(=O)[O-])cc2n1C(=O)OC(=O)c1ccco1 (3D coordinates assigned)
NC(=O)c1cc2ccc(CC(=O)[O-])cc2n1C(=O)OC(=O)c1ccco1 (optimized conformer: 102.2933301224672 kcal/mol)

>  <smiles>  (45) 
NC(=O)c1cc2ccc(CC(=O)O)cc2n1C(=O)OC(=O)c1ccco1

>  <score_type>  (45) 
oracle

>  <origin>  (45) 
adg

>  <m_score__min__energy>  (45) 
-7.2300000000000004

>  <m_primary>  (45) 
energy

$$$$
46:0
     RDKit          3D

 42 43  0  0  0  0  0  0  0  0999 V2000
  141.7270  156.5890  136.8160 C   0  0  0  0  0  0  0  0  0  0  0  0
  141.5010  157.9530  137.1470 O   0  0  0  0  0  0  0  0  0  0  0  0
  140.6670  158.7850  136.3950 C   0  0  0  0  0  0  0  0  0  0  0  0
  140.6060  160.0220  136.6380 O   0  0  0  0  0  0  0  0  0  0  0  0
  139.8530  158.2030  135.2800 C   0  0  0  0  0  0  0  0  0  0  0  0
  140.5300  158.3940  133.9880 N   0  0  0  0  0  0  0  0  0  0  0  0
  139.8340  157.9640  132.7690 C   0  0  0  0  0  0  0  0  0  0  0  0
  141.8700  158.9500  133.9090 C   0  0  0  0  0  0  0  0  0  0  0  0
  142.0660  160.3580  133.8300 C   0  0  0  0  0  0  0  0  0  0  0  0
  143.3550  160.9070  133.7270 C   0  0  0  0  0  0  0  0  0  0  0  0
  144.4370  160.0360  133.7130 C   0  0  0  0  0  0  0  0  0  0  0  0
  145.7830  160.2960  133.5900 C   0  0  0  0  0  0  0  0  0  0  0  0
  146.4050  159.0490  133.6190 C   0  0  0  0  0  0  0  0  0  0  0  0
  147.8730  158.8560  133.6020 C   0  0  0  0  0  0  0  0  0  0  0  0
  148.4450  157.5820  133.9050 N   0  0  0  0  0  0  0  0  0  0  0  0
  148.6330  159.8100  133.2920 O   0  0  0  0  0  0  0  0  0  0  0  0
  145.4790  158.0600  133.7560 N   0  0  0  0  0  0  0  0  0  0  0  0
  145.7020  156.6410  133.7790 C   0  0  0  0  0  0  0  0  0  0  0  0
  146.3190  156.0840  132.8290 O   0  0  0  0  0  0  0  0  0  0  0  0
  145.2220  155.8820  134.8500 O   0  0  0  0  0  0  0  0  0  0  0  0
  145.5570  154.5100  135.0340 C   0  0  0  0  0  0  0  0  0  0  0  0
  146.8200  154.4040  135.8220 C   0  0  0  0  0  0  0  0  0  0  0  0
  147.7210  155.2750  135.6940 O   0  0  0  0  0  0  0  0  0  0  0  0
  146.9930  153.3620  136.7230 O   0  0  0  0  0  0  0  0  0  0  0  0
  144.2800  158.6800  133.8110 C   0  0  0  0  0  0  0  0  0  0  0  0
  143.0090  158.1030  133.8940 C   0  0  0  0  0  0  0  0  0  0  0  0
  141.8248  155.9990  137.7392 H   0  0  0  0  0  0  0  0  0  0  0  0
  140.8795  156.2095  136.2263 H   0  0  0  0  0  0  0  0  0  0  0  0
  142.6516  156.5031  136.2263 H   0  0  0  0  0  0  0  0  0  0  0  0
  139.7130  157.1267  135.4587 H   0  0  0  0  0  0  0  0  0  0  0  0
  138.8795  158.7142  135.2484 H   0  0  0  0  0  0  0  0  0  0  0  0
  138.9276  157.4040  133.0425 H   0  0  0  0  0  0  0  0  0  0  0  0
  139.5544  158.8470  132.1756 H   0  0  0  0  0  0  0  0  0  0  0  0
  140.4985  157.3188  132.1756 H   0  0  0  0  0  0  0  0  0  0  0  0
  141.1933  161.0273  133.8500 H   0  0  0  0  0  0  0  0  0  0  0  0
  143.5032  161.9949  133.6594 H   0  0  0  0  0  0  0  0  0  0  0  0
  146.2655  161.2794  133.4900 H   0  0  0  0  0  0  0  0  0  0  0  0
  149.4800  157.4470  133.8510 H   0  0  0  0  0  0  0  0  0  0  0  0
  147.8550  156.7810  134.2210 H   0  0  0  0  0  0  0  0  0  0  0  0
  144.7441  154.0042  135.5756 H   0  0  0  0  0  0  0  0  0  0  0  0
  145.6979  154.0337  134.0525 H   0  0  0  0  0  0  0  0  0  0  0  0
  142.8936  157.0103  133.9468 H   0  0  0  0  0  0  0  0  0  0  0  0
  1  2  1  0
  2  3  1  0
  3  4  2  0
  3  5  1  0
  5  6  1  0
  6  7  1  0
  6  8  1  0
  8  9  2  0
  9 10  1  0
 10 11  2  0
 11 12  1  0
 12 13  2  0
 13 14  1  0
 14 15  1  0
 14 16  2  0
 13 17  1  0
 17 18  1  0
 18 19  2  0
 18 20  1  0
 20 21  1  0
 21 22  1  0
 22 23  2  0
 22 24  1  0
 17 25  1  0
 25 26  2  0
 26  8  1  0
 25 11  1  0
  1 27  1  0
  1 28  1  0
  1 29  1  0
  5 30  1  0
  5 31  1  0
  7 32  1  0
  7 33  1  0
  7 34  1  0
  9 35  1  0
 10 36  1  0
 12 37  1  0
 15 38  1  0
 15 39  1  0
 21 40  1  0
 21 41  1  0
 26 42  1  0
M  CHG  1  24  -1
M  END
>  <UniqueID>  (46) 
46

>  <SMILES>  (46) 
COC(=O)CN(C)c1ccc2cc(C(N)=O)n(C(=O)OCC(=O)[O-])c2c1

>  <Energy>  (46) 
74.99185500794692

>  <Genealogy>  (46) 
COC(=O)CN(C)c1ccc2cc(C(N)=O)n(C(=O)OCC(=O)[O-])c2c1 (protonated)
COC(=O)CN(C)c1ccc2cc(C(N)=O)n(C(=O)OCC(=O)[O-])c2c1 (3D coordinates assigned)
COC(=O)CN(C)c1ccc2cc(C(N)=O)n(C(=O)OCC(=O)[O-])c2c1 (optimized conformer: 74.99185500794692 kcal/mol)

>  <smiles>  (46) 
COC(=O)CN(C)c1ccc2cc(C(N)=O)n(C(=O)OCC(=O)O)c2c1

>  <score_type>  (46) 
oracle

>  <origin>  (46) 
adg

>  <m_score__min__energy>  (46) 
-6.6699999999999999

>  <m_primary>  (46) 
energy

$$$$
48:0
     RDKit          3D

 59 60  0  0  0  0  0  0  0  0999 V2000
  142.1400  150.6710  132.5290 C   0  0  0  0  0  0  0  0  0  0  0  0
  142.1220  152.0250  133.0900 N   0  0  0  0  0  0  0  0  0  0  0  0
  143.3210  152.5720  133.7410 C   0  0  0  0  0  0  0  0  0  0  0  0
  144.1070  153.4470  132.7620 C   0  0  0  0  0  0  0  0  0  0  0  0
  143.2340  154.0680  131.8580 O   0  0  0  0  0  0  0  0  0  0  0  0
  140.9320  152.8260  132.9710 C   0  0  0  0  0  0  0  0  0  0  0  0
  139.8470  152.2930  132.6080 O   0  0  0  0  0  0  0  0  0  0  0  0
  140.9810  154.1970  133.2530 O   0  0  0  0  0  0  0  0  0  0  0  0
  139.8780  155.0710  133.0370 C   0  0  0  0  0  0  0  0  0  0  0  0
  140.2300  156.3900  133.4400 O   0  0  0  0  0  0  0  0  0  0  0  0
  139.3770  157.4870  133.2880 C   0  0  0  0  0  0  0  0  0  0  0  0
  138.1520  157.3810  133.5710 O   0  0  0  0  0  0  0  0  0  0  0  0
  139.9020  158.7380  132.8070 N   0  0  0  0  0  0  0  0  0  0  0  0
  139.1380  159.5200  131.8300 C   0  0  0  0  0  0  0  0  0  0  0  0
  141.2010  159.2220  133.2910 C   0  0  0  0  0  0  0  0  0  0  0  0
  141.0360  159.9360  134.6370 C   0  0  0  0  0  0  0  0  0  0  0  0
  141.7930  159.2000  135.7500 C   0  0  0  0  0  0  0  0  0  0  0  0
  141.1250  157.9050  136.1270 C   0  0  0  0  0  0  0  0  0  0  0  0
  139.8730  157.8600  136.2700 O   0  0  0  0  0  0  0  0  0  0  0  0
  141.8840  156.6880  136.1710 N   0  0  0  0  0  0  0  0  0  0  0  0
  142.7820  156.2180  135.2610 C   0  0  0  0  0  0  0  0  0  0  0  0
  143.2850  156.9530  134.0810 C   0  0  0  0  0  0  0  0  0  0  0  0
  142.9560  156.5300  132.7610 N   0  0  0  0  0  0  0  0  0  0  0  0
  143.9850  157.9890  134.2400 O   0  0  0  0  0  0  0  0  0  0  0  0
  143.2320  154.9510  135.6290 C   0  0  0  0  0  0  0  0  0  0  0  0
  142.5830  154.6630  136.8090 C   0  0  0  0  0  0  0  0  0  0  0  0
  142.6390  153.5270  137.6100 C   0  0  0  0  0  0  0  0  0  0  0  0
  141.8340  153.4910  138.7620 C   0  0  0  0  0  0  0  0  0  0  0  0
  141.0000  154.5900  139.0990 C   0  0  0  0  0  0  0  0  0  0  0  0
  140.0950  154.5180  140.3040 C   0  0  0  0  0  0  0  0  0  0  0  0
  138.7650  154.4800  139.9190 F   0  0  0  0  0  0  0  0  0  0  0  0
  140.3030  155.6300  141.0970 F   0  0  0  0  0  0  0  0  0  0  0  0
  140.3620  153.3800  141.0440 F   0  0  0  0  0  0  0  0  0  0  0  0
  140.9560  155.7170  138.2460 C   0  0  0  0  0  0  0  0  0  0  0  0
  141.7780  155.7280  137.1140 C   0  0  0  0  0  0  0  0  0  0  0  0
  142.1498  149.9354  133.3468 H   0  0  0  0  0  0  0  0  0  0  0  0
  141.2438  150.5188  131.9096 H   0  0  0  0  0  0  0  0  0  0  0  0
  143.0399  150.5427  131.9096 H   0  0  0  0  0  0  0  0  0  0  0  0
  143.0183  153.1789  134.6070 H   0  0  0  0  0  0  0  0  0  0  0  0
  143.9608  151.7392  134.0683 H   0  0  0  0  0  0  0  0  0  0  0  0
  144.6564  154.2170  133.3235 H   0  0  0  0  0  0  0  0  0  0  0  0
  144.8121  152.8147  132.2026 H   0  0  0  0  0  0  0  0  0  0  0  0
  142.8450  154.8510  132.3320 H   0  0  0  0  0  0  0  0  0  0  0  0
  139.6151  155.0721  131.9689 H   0  0  0  0  0  0  0  0  0  0  0  0
  139.0163  154.7256  133.6271 H   0  0  0  0  0  0  0  0  0  0  0  0
  138.4640  160.2099  132.3590 H   0  0  0  0  0  0  0  0  0  0  0  0
  139.8308  160.0961  131.1990 H   0  0  0  0  0  0  0  0  0  0  0  0
  138.5460  158.8408  131.1990 H   0  0  0  0  0  0  0  0  0  0  0  0
  141.8830  158.3679  133.4148 H   0  0  0  0  0  0  0  0  0  0  0  0
  141.6135  159.9313  132.5584 H   0  0  0  0  0  0  0  0  0  0  0  0
  141.4296  160.9596  134.5512 H   0  0  0  0  0  0  0  0  0  0  0  0
  139.9667  159.9529  134.8944 H   0  0  0  0  0  0  0  0  0  0  0  0
  142.8141  158.9845  135.4022 H   0  0  0  0  0  0  0  0  0  0  0  0
  141.8031  159.8478  136.6390 H   0  0  0  0  0  0  0  0  0  0  0  0
  142.1630  155.8720  132.5890 H   0  0  0  0  0  0  0  0  0  0  0  0
  143.9520  154.3165  135.0914 H   0  0  0  0  0  0  0  0  0  0  0  0
  143.2936  152.6821  137.3498 H   0  0  0  0  0  0  0  0  0  0  0  0
  141.8503  152.6019  139.4094 H   0  0  0  0  0  0  0  0  0  0  0  0
  140.2912  156.5650  138.4673 H   0  0  0  0  0  0  0  0  0  0  0  0
  1  2  1  0
  2  3  1  0
  3  4  1  0
  4  5  1  0
  2  6  1  0
  6  7  2  0
  6  8  1  0
  8  9  1  0
  9 10  1  0
 10 11  1  0
 11 12  2  0
 11 13  1  0
 13 14  1  0
 13 15  1  0
 15 16  1  0
 16 17  1  0
 17 18  1  0
 18 19  2  0
 18 20  1  0
 20 21  1  0
 21 22  1  0
 22 23  1  0
 22 24  2  0
 21 25  2  0
 25 26  1  0
 26 27  2  0
 27 28  1  0
 28 29  2  0
 29 30  1  0
 30 31  1  0
 30 32  1  0
 30 33  1  0
 29 34  1  0
 34 35  2  0
 35 20  1  0
 35 26  1  0
  1 36  1  0
  1 37  1  0
  1 38  1  0
  3 39  1  0
  3 40  1  0
  4 41  1  0
  4 42  1  0
  5 43  1  0
  9 44  1  0
  9 45  1  0
 14 46  1  0
 14 47  1  0
 14 48  1  0
 15 49  1  0
 15 50  1  0
 16 51  1  0
 16 52  1  0
 17 53  1  0
 17 54  1  0
 23 55  1  0
 25 56  1  0
 27 57  1  0
 28 58  1  0
 34 59  1  0
M  CHG  1  23  -1
M  END
>  <UniqueID>  (47) 
47

>  <SMILES>  (47) 
CN(CCO)C(=O)OCOC(=O)N(C)CCCC(=O)n1c(C([NH-])=O)cc2ccc(C(F)(F)F)cc21

>  <Energy>  (47) 
82.47323471101882

>  <Genealogy>  (47) 
CN(CCO)C(=O)OCOC(=O)N(C)CCCC(=O)n1c(C([NH-])=O)cc2ccc(C(F)(F)F)cc21 (protonated)
CN(CCO)C(=O)OCOC(=O)N(C)CCCC(=O)n1c(C([NH-])=O)cc2ccc(C(F)(F)F)cc21 (3D coordinates assigned)
CN(CCO)C(=O)OCOC(=O)N(C)CCCC(=O)n1c(C([NH-])=O)cc2ccc(C(F)(F)F)cc21 (optimized conformer: 82.47323471101882 kcal/mol)

>  <smiles>  (47) 
CN(CCO)C(=O)OCOC(=O)N(C)CCCC(=O)n1c(C(N)=O)cc2ccc(C(F)(F)F)cc21

>  <score_type>  (47) 
oracle

>  <origin>  (47) 
adg

>  <m_score__min__energy>  (47) 
-5.5199999999999996

>  <m_primary>  (47) 
energy

$$$$
49:0
     RDKit          3D

 39 41  0  0  0  0  0  0  0  0999 V2000
  147.2370  154.1190  132.9950 C   0  0  0  0  0  0  0  0  0  0  0  0
  146.0250  153.3820  133.3830 N   0  0  2  0  0  0  0  0  0  0  0  0
  145.1690  153.0800  132.2200 C   0  0  0  0  0  0  0  0  0  0  0  0
  144.0010  154.0750  132.2170 C   0  0  0  0  0  0  0  0  0  0  0  0
  143.8690  154.5420  133.6630 C   0  0  2  0  0  0  0  0  0  0  0  0
  143.5390  156.0170  133.7770 C   0  0  0  0  0  0  0  0  0  0  0  0
  142.2180  156.4560  134.0660 C   0  0  0  0  0  0  0  0  0  0  0  0
  141.9250  157.8250  134.1810 C   0  0  0  0  0  0  0  0  0  0  0  0
  142.9670  158.7320  134.0200 C   0  0  0  0  0  0  0  0  0  0  0  0
  142.9570  160.1060  134.0600 C   0  0  0  0  0  0  0  0  0  0  0  0
  144.2760  160.4930  133.8300 C   0  0  0  0  0  0  0  0  0  0  0  0
  144.7320  161.8980  133.8730 C   0  0  0  0  0  0  0  0  0  0  0  0
  146.1080  162.1900  134.1080 N   0  0  0  0  0  0  0  0  0  0  0  0
  143.9270  162.8450  133.6720 O   0  0  0  0  0  0  0  0  0  0  0  0
  145.0690  159.3980  133.6470 N   0  0  0  0  0  0  0  0  0  0  0  0
  146.4700  159.3650  133.3310 C   0  0  0  0  0  0  0  0  0  0  0  0
  146.9010  160.0100  132.3370 O   0  0  0  0  0  0  0  0  0  0  0  0
  147.3370  158.5970  134.1190 O   0  0  0  0  0  0  0  0  0  0  0  0
  147.7560  157.2950  133.8180 C   0  0  0  0  0  0  0  0  0  0  0  0
  148.1310  156.9770  132.6570 O   0  0  0  0  0  0  0  0  0  0  0  0
  147.7580  156.3350  134.8200 O   0  0  0  0  0  0  0  0  0  0  0  0
  144.2520  158.3290  133.7700 C   0  0  0  0  0  0  0  0  0  0  0  0
  144.5710  156.9730  133.6310 C   0  0  0  0  0  0  0  0  0  0  0  0
  145.1940  154.1840  134.2320 C   0  0  0  0  0  0  0  0  0  0  0  0
  145.5250  154.4820  135.3710 O   0  0  0  0  0  0  0  0  0  0  0  0
  147.7730  154.4449  133.8986 H   0  0  0  0  0  0  0  0  0  0  0  0
  147.8889  153.4643  132.3981 H   0  0  0  0  0  0  0  0  0  0  0  0
  146.9557  154.9991  132.3981 H   0  0  0  0  0  0  0  0  0  0  0  0
  146.2890  152.4980  133.8800 H   0  0  0  0  0  0  0  0  0  0  0  0
  145.7503  153.1845  131.2920 H   0  0  0  0  0  0  0  0  0  0  0  0
  144.7912  152.0488  132.2823 H   0  0  0  0  0  0  0  0  0  0  0  0
  144.2210  154.9259  131.5555 H   0  0  0  0  0  0  0  0  0  0  0  0
  143.0720  153.6169  131.8467 H   0  0  0  0  0  0  0  0  0  0  0  0
  143.0323  154.0734  134.2019 H   0  0  0  0  0  0  0  0  0  0  0  0
  141.4162  155.7151  134.2011 H   0  0  0  0  0  0  0  0  0  0  0  0
  140.9019  158.1694  134.3921 H   0  0  0  0  0  0  0  0  0  0  0  0
  142.0913  160.7613  134.2362 H   0  0  0  0  0  0  0  0  0  0  0  0
  146.8400  161.9150  133.4170 H   0  0  0  0  0  0  0  0  0  0  0  0
  145.6021  156.6579  133.4129 H   0  0  0  0  0  0  0  0  0  0  0  0
  1  2  1  0
  2  3  1  0
  3  4  1  0
  4  5  1  0
  5  6  1  0
  6  7  2  0
  7  8  1  0
  8  9  2  0
  9 10  1  0
 10 11  2  0
 11 12  1  0
 12 13  1  0
 12 14  2  0
 11 15  1  0
 15 16  1  0
 16 17  2  0
 16 18  1  0
 18 19  1  0
 19 20  2  0
 19 21  1  0
 15 22  1  0
 22 23  2  0
  5 24  1  0
 24 25  2  0
 24  2  1  0
 23  6  1  0
 22  9  1  0
  1 26  1  0
  1 27  1  0
  1 28  1  0
  2 29  1  1
  3 30  1  0
  3 31  1  0
  4 32  1  0
  4 33  1  0
  5 34  1  1
  7 35  1  0
  8 36  1  0
 10 37  1  0
 13 38  1  0
 23 39  1  0
M  CHG  3   2   1  13  -1  21  -1
M  END
>  <UniqueID>  (48) 
48

>  <SMILES>  (48) 
C[N@@H+]1CC[C@H](c2ccc3cc(C([NH-])=O)n(C(=O)OC(=O)[O-])c3c2)C1=O

>  <Energy>  (48) 
84.27505879784982

>  <Genealogy>  (48) 
C[NH+]1CCC(c2ccc3cc(C([NH-])=O)n(C(=O)OC(=O)[O-])c3c2)C1=O (protonated)
C[N@@H+]1CC[C@H](c2ccc3cc(C([NH-])=O)n(C(=O)OC(=O)[O-])c3c2)C1=O (chirality)
C[N@@H+]1CC[C@H](c2ccc3cc(C([NH-])=O)n(C(=O)OC(=O)[O-])c3c2)C1=O (3D coordinates assigned)
C[N@@H+]1CC[C@H](c2ccc3cc(C([NH-])=O)n(C(=O)OC(=O)[O-])c3c2)C1=O (nonaromatic ring conformer: 84.27505879784982 kcal/mol)

>  <smiles>  (48) 
CN1CCC(c2ccc3cc(C(N)=O)n(C(=O)OC(=O)O)c3c2)C1=O

>  <score_type>  (48) 
oracle

>  <origin>  (48) 
adg

>  <m_score__min__energy>  (48) 
-6.7199999999999998

>  <m_primary>  (48) 
energy

$$$$
50:0
     RDKit          3D

 42 43  0  0  0  0  0  0  0  0999 V2000
  147.9060  155.0220  132.5970 C   0  0  0  0  0  0  0  0  0  0  0  0
  147.7170  156.4960  132.7920 C   0  0  0  0  0  0  0  0  0  0  0  0
  148.8300  157.3710  132.7210 C   0  0  0  0  0  0  0  0  0  0  0  0
  148.6680  158.7520  132.9280 C   0  0  0  0  0  0  0  0  0  0  0  0
  147.3900  159.2220  133.2170 C   0  0  0  0  0  0  0  0  0  0  0  0
  146.9460  160.5070  133.4380 C   0  0  0  0  0  0  0  0  0  0  0  0
  145.5760  160.3890  133.6690 C   0  0  0  0  0  0  0  0  0  0  0  0
  144.7080  161.5250  134.0380 C   0  0  0  0  0  0  0  0  0  0  0  0
  143.3240  161.5300  133.6960 N   0  0  0  0  0  0  0  0  0  0  0  0
  145.1850  162.4880  134.6960 O   0  0  0  0  0  0  0  0  0  0  0  0
  145.1890  159.0860  133.5800 N   0  0  0  0  0  0  0  0  0  0  0  0
  143.8590  158.5490  133.6430 C   0  0  0  0  0  0  0  0  0  0  0  0
  143.3470  158.0330  132.6140 O   0  0  0  0  0  0  0  0  0  0  0  0
  143.0380  158.6760  134.8930 C   0  0  0  0  0  0  0  0  0  0  0  0
  141.3610  159.1980  134.5200 S   0  0  0  0  0  0  0  0  0  0  0  0
  141.3390  159.7310  133.1150 O   0  0  0  0  0  0  0  0  0  0  0  0
  140.9530  160.3040  135.4530 O   0  0  0  0  0  0  0  0  0  0  0  0
  140.1680  157.8450  134.6470 C   0  0  0  0  0  0  0  0  0  0  0  0
  140.8880  156.4940  134.4990 C   0  0  0  0  0  0  0  0  0  0  0  0
  139.4870  157.9080  136.0250 C   0  0  0  0  0  0  0  0  0  0  0  0
  139.0990  157.9840  133.5480 C   0  0  0  0  0  0  0  0  0  0  0  0
  146.3110  158.3840  133.3140 C   0  0  0  0  0  0  0  0  0  0  0  0
  146.4390  157.0070  133.1070 C   0  0  0  0  0  0  0  0  0  0  0  0
  147.9694  154.5276  133.5776 H   0  0  0  0  0  0  0  0  0  0  0  0
  147.0528  154.6141  132.0352 H   0  0  0  0  0  0  0  0  0  0  0  0
  148.8345  154.8426  132.0352 H   0  0  0  0  0  0  0  0  0  0  0  0
  149.8290  156.9659  132.5020 H   0  0  0  0  0  0  0  0  0  0  0  0
  149.5242  159.4396  132.8636 H   0  0  0  0  0  0  0  0  0  0  0  0
  147.5447  161.4298  133.4333 H   0  0  0  0  0  0  0  0  0  0  0  0
  142.6250  161.0140  134.2750 H   0  0  0  0  0  0  0  0  0  0  0  0
  143.0054  157.7010  135.4012 H   0  0  0  0  0  0  0  0  0  0  0  0
  143.5030  159.4353  135.5389 H   0  0  0  0  0  0  0  0  0  0  0  0
  141.1066  156.0838  135.4960 H   0  0  0  0  0  0  0  0  0  0  0  0
  140.2436  155.7935  133.9476 H   0  0  0  0  0  0  0  0  0  0  0  0
  141.8288  156.6384  133.9476 H   0  0  0  0  0  0  0  0  0  0  0  0
  140.2497  157.8374  136.8145 H   0  0  0  0  0  0  0  0  0  0  0  0
  138.9449  158.8601  136.1229 H   0  0  0  0  0  0  0  0  0  0  0  0
  138.7794  157.0715  136.1229 H   0  0  0  0  0  0  0  0  0  0  0  0
  138.1102  158.1126  134.0125 H   0  0  0  0  0  0  0  0  0  0  0  0
  139.3273  158.8600  132.9231 H   0  0  0  0  0  0  0  0  0  0  0  0
  139.0957  157.0787  132.9231 H   0  0  0  0  0  0  0  0  0  0  0  0
  145.5679  156.3401  133.1874 H   0  0  0  0  0  0  0  0  0  0  0  0
  1  2  1  0
  2  3  2  0
  3  4  1  0
  4  5  2  0
  5  6  1  0
  6  7  2  0
  7  8  1  0
  8  9  1  0
  8 10  2  0
  7 11  1  0
 11 12  1  0
 12 13  2  0
 12 14  1  0
 14 15  1  0
 15 16  2  0
 15 17  2  0
 15 18  1  0
 18 19  1  0
 18 20  1  0
 18 21  1  0
 11 22  1  0
 22 23  2  0
 23  2  1  0
 22  5  1  0
  1 24  1  0
  1 25  1  0
  1 26  1  0
  3 27  1  0
  4 28  1  0
  6 29  1  0
  9 30  1  0
 14 31  1  0
 14 32  1  0
 19 33  1  0
 19 34  1  0
 19 35  1  0
 20 36  1  0
 20 37  1  0
 20 38  1  0
 21 39  1  0
 21 40  1  0
 21 41  1  0
 23 42  1  0
M  CHG  1   9  -1
M  END
>  <UniqueID>  (49) 
49

>  <SMILES>  (49) 
Cc1ccc2cc(C([NH-])=O)n(C(=O)CS(=O)(=O)C(C)(C)C)c2c1

>  <Energy>  (49) 
67.11279191191147

>  <Genealogy>  (49) 
Cc1ccc2cc(C([NH-])=O)n(C(=O)CS(=O)(=O)C(C)(C)C)c2c1 (protonated)
Cc1ccc2cc(C([NH-])=O)n(C(=O)CS(=O)(=O)C(C)(C)C)c2c1 (3D coordinates assigned)
Cc1ccc2cc(C([NH-])=O)n(C(=O)CS(=O)(=O)C(C)(C)C)c2c1 (optimized conformer: 67.11279191191147 kcal/mol)

>  <smiles>  (49) 
Cc1ccc2cc(C(N)=O)n(C(=O)CS(=O)(=O)C(C)(C)C)c2c1

>  <score_type>  (49) 
oracle

>  <origin>  (49) 
adg

>  <m_score__min__energy>  (49) 
-7.5499999999999998

>  <m_primary>  (49) 
energy

$$$$
51:0
     RDKit          3D

 42 43  0  0  0  0  0  0  0  0999 V2000
  148.3850  154.4510  132.6200 C   0  0  0  0  0  0  0  0  0  0  0  0
  148.4820  155.5210  133.5530 O   0  0  0  0  0  0  0  0  0  0  0  0
  147.3630  156.0650  134.1920 C   0  0  0  0  0  0  0  0  0  0  0  0
  147.2370  155.9790  135.4440 O   0  0  0  0  0  0  0  0  0  0  0  0
  146.3270  156.7340  133.3940 C   0  0  0  0  0  0  0  0  0  0  0  0
  145.5200  156.0410  132.7190 O   0  0  0  0  0  0  0  0  0  0  0  0
  146.2280  158.1660  133.3690 N   0  0  0  0  0  0  0  0  0  0  0  0
  147.2310  159.0700  133.1860 C   0  0  0  0  0  0  0  0  0  0  0  0
  148.6380  158.7510  132.8610 C   0  0  0  0  0  0  0  0  0  0  0  0
  148.9620  157.7880  131.8620 N   0  0  0  0  0  0  0  0  0  0  0  0
  149.5690  159.3570  133.4570 O   0  0  0  0  0  0  0  0  0  0  0  0
  146.7400  160.3710  133.2930 C   0  0  0  0  0  0  0  0  0  0  0  0
  145.3940  160.2320  133.5500 C   0  0  0  0  0  0  0  0  0  0  0  0
  144.4170  161.2000  133.7600 C   0  0  0  0  0  0  0  0  0  0  0  0
  143.1080  160.7650  134.0280 C   0  0  0  0  0  0  0  0  0  0  0  0
  142.7960  159.3830  134.0870 C   0  0  0  0  0  0  0  0  0  0  0  0
  141.4390  158.9850  134.3640 N   0  0  0  0  0  0  0  0  0  0  0  0
  140.6780  158.0150  133.5730 C   0  0  0  0  0  0  0  0  0  0  0  0
  139.5640  157.3730  134.4060 C   0  0  0  0  0  0  0  0  0  0  0  0
  139.2640  158.2010  135.5810 N   0  0  0  0  0  0  0  0  0  0  0  0
  140.0200  157.7300  136.7450 C   0  0  0  0  0  0  0  0  0  0  0  0
  140.8310  158.8520  137.3070 C   0  0  0  0  0  0  0  0  0  0  0  0
  141.6980  158.6280  138.1920 O   0  0  0  0  0  0  0  0  0  0  0  0
  140.6620  160.1410  136.8200 O   0  0  0  0  0  0  0  0  0  0  0  0
  143.8250  158.4310  133.8860 C   0  0  0  0  0  0  0  0  0  0  0  0
  145.1120  158.8940  133.5960 C   0  0  0  0  0  0  0  0  0  0  0  0
  148.2986  153.4981  133.1626 H   0  0  0  0  0  0  0  0  0  0  0  0
  147.4962  154.5950  131.9881 H   0  0  0  0  0  0  0  0  0  0  0  0
  149.2852  154.4328  131.9881 H   0  0  0  0  0  0  0  0  0  0  0  0
  148.4940  156.8550  131.8450 H   0  0  0  0  0  0  0  0  0  0  0  0
  147.3069  161.3084  133.1934 H   0  0  0  0  0  0  0  0  0  0  0  0
  144.6615  162.2717  133.7176 H   0  0  0  0  0  0  0  0  0  0  0  0
  142.3136  161.5075  134.1945 H   0  0  0  0  0  0  0  0  0  0  0  0
  140.9470  159.4290  135.1720 H   0  0  0  0  0  0  0  0  0  0  0  0
  140.2298  158.5287  132.7097 H   0  0  0  0  0  0  0  0  0  0  0  0
  141.3642  157.2226  133.2395 H   0  0  0  0  0  0  0  0  0  0  0  0
  138.6585  157.2775  133.7887 H   0  0  0  0  0  0  0  0  0  0  0  0
  139.8966  156.3803  134.7435 H   0  0  0  0  0  0  0  0  0  0  0  0
  139.5740  159.1800  135.3700 H   0  0  0  0  0  0  0  0  0  0  0  0
  139.3208  157.3646  137.5116 H   0  0  0  0  0  0  0  0  0  0  0  0
  140.6909  156.9142  136.4376 H   0  0  0  0  0  0  0  0  0  0  0  0
  143.6167  157.3532  133.9563 H   0  0  0  0  0  0  0  0  0  0  0  0
  1  2  1  0
  2  3  1  0
  3  4  2  0
  3  5  1  0
  5  6  2  0
  5  7  1  0
  7  8  1  0
  8  9  1  0
  9 10  1  0
  9 11  2  0
  8 12  2  0
 12 13  1  0
 13 14  2  0
 14 15  1  0
 15 16  2  0
 16 17  1  0
 17 18  1  0
 18 19  1  0
 19 20  1  0
 20 21  1  0
 21 22  1  0
 22 23  2  0
 22 24  1  0
 16 25  1  0
 25 26  2  0
 26  7  1  0
 26 13  1  0
  1 27  1  0
  1 28  1  0
  1 29  1  0
 10 30  1  0
 12 31  1  0
 14 32  1  0
 15 33  1  0
 17 34  1  0
 18 35  1  0
 18 36  1  0
 19 37  1  0
 19 38  1  0
 20 39  1  0
 21 40  1  0
 21 41  1  0
 25 42  1  0
M  CHG  2  10  -1  24  -1
M  END
>  <UniqueID>  (50) 
50

>  <SMILES>  (50) 
COC(=O)C(=O)n1c(C([NH-])=O)cc2ccc(NCCNCC(=O)[O-])cc21

>  <Energy>  (50) 
73.38804345589048

>  <Genealogy>  (50) 
COC(=O)C(=O)n1c(C([NH-])=O)cc2ccc(NCCNCC(=O)[O-])cc21 (protonated)
COC(=O)C(=O)n1c(C([NH-])=O)cc2ccc(NCCNCC(=O)[O-])cc21 (3D coordinates assigned)
COC(=O)C(=O)n1c(C([NH-])=O)cc2ccc(NCCNCC(=O)[O-])cc21 (optimized conformer: 73.38804345589048 kcal/mol)

>  <smiles>  (50) 
COC(=O)C(=O)n1c(C(N)=O)cc2ccc(NCCNCC(=O)O)cc21

>  <score_type>  (50) 
oracle

>  <origin>  (50) 
adg

>  <m_score__min__energy>  (50) 
-6.5899999999999999

>  <m_primary>  (50) 
energy

$$$$
52:0
     RDKit          3D

 37 38  0  0  0  0  0  0  0  0999 V2000
  139.5110  158.1600  132.7010 C   0  0  0  0  0  0  0  0  0  0  0  0
  140.1960  157.7530  133.9960 C   0  0  0  0  0  0  0  0  0  0  0  0
  140.8900  158.8700  134.5410 O   0  0  0  0  0  0  0  0  0  0  0  0
  142.0230  158.7350  135.3470 C   0  0  0  0  0  0  0  0  0  0  0  0
  142.0620  159.2790  136.4850 O   0  0  0  0  0  0  0  0  0  0  0  0
  143.1050  157.9880  134.8660 O   0  0  0  0  0  0  0  0  0  0  0  0
  143.7150  158.1650  133.6160 C   0  0  0  0  0  0  0  0  0  0  0  0
  143.1490  157.7730  132.5600 O   0  0  0  0  0  0  0  0  0  0  0  0
  145.0130  158.7760  133.5440 N   0  0  0  0  0  0  0  0  0  0  0  0
  145.3140  160.1060  133.5380 C   0  0  0  0  0  0  0  0  0  0  0  0
  144.3640  161.2140  133.7690 C   0  0  0  0  0  0  0  0  0  0  0  0
  142.9570  160.9960  133.7260 N   0  0  0  0  0  0  0  0  0  0  0  0
  144.8010  162.3610  134.0560 O   0  0  0  0  0  0  0  0  0  0  0  0
  146.6840  160.2960  133.3650 C   0  0  0  0  0  0  0  0  0  0  0  0
  147.2190  159.0310  133.2730 C   0  0  0  0  0  0  0  0  0  0  0  0
  148.5390  158.6280  133.0960 C   0  0  0  0  0  0  0  0  0  0  0  0
  148.8020  157.2520  133.0140 C   0  0  0  0  0  0  0  0  0  0  0  0
  147.7440  156.3080  133.0810 C   0  0  0  0  0  0  0  0  0  0  0  0
  148.0180  154.8580  133.0310 C   0  0  0  0  0  0  0  0  0  0  0  0
  148.4550  154.3420  131.8550 F   0  0  0  0  0  0  0  0  0  0  0  0
  147.8440  154.0170  134.0640 C   0  0  0  0  0  0  0  0  0  0  0  0
  147.5370  154.4140  135.4510 C   0  0  0  0  0  0  0  0  0  0  0  0
  147.7400  155.6040  135.8090 O   0  0  0  0  0  0  0  0  0  0  0  0
  146.9640  153.5250  136.3520 O   0  0  0  0  0  0  0  0  0  0  0  0
  146.4210  156.7540  133.2860 C   0  0  0  0  0  0  0  0  0  0  0  0
  146.1900  158.1310  133.3840 C   0  0  0  0  0  0  0  0  0  0  0  0
  138.5865  158.7093  132.9322 H   0  0  0  0  0  0  0  0  0  0  0  0
  140.1843  158.8047  132.1170 H   0  0  0  0  0  0  0  0  0  0  0  0
  139.2667  157.2604  132.1170 H   0  0  0  0  0  0  0  0  0  0  0  0
  139.4407  157.4046  134.7158 H   0  0  0  0  0  0  0  0  0  0  0  0
  140.9114  156.9428  133.7917 H   0  0  0  0  0  0  0  0  0  0  0  0
  142.5580  160.0360  133.8240 H   0  0  0  0  0  0  0  0  0  0  0  0
  147.2231  161.2534  133.3131 H   0  0  0  0  0  0  0  0  0  0  0  0
  149.3517  159.3656  133.0226 H   0  0  0  0  0  0  0  0  0  0  0  0
  149.8381  156.9015  132.8967 H   0  0  0  0  0  0  0  0  0  0  0  0
  147.9385  152.9406  133.8579 H   0  0  0  0  0  0  0  0  0  0  0  0
  145.5911  156.0366  133.3668 H   0  0  0  0  0  0  0  0  0  0  0  0
  1  2  1  0
  2  3  1  0
  3  4  1  0
  4  5  2  0
  4  6  1  0
  6  7  1  0
  7  8  2  0
  7  9  1  0
  9 10  1  0
 10 11  1  0
 11 12  1  0
 11 13  2  0
 10 14  2  0
 14 15  1  0
 15 16  2  0
 16 17  1  0
 17 18  2  0
 18 19  1  0
 19 20  1  0
 19 21  2  3
 21 22  1  0
 22 23  2  0
 22 24  1  0
 18 25  1  0
 25 26  2  0
 26  9  1  0
 26 15  1  0
  1 27  1  0
  1 28  1  0
  1 29  1  0
  2 30  1  0
  2 31  1  0
 12 32  1  0
 14 33  1  0
 16 34  1  0
 17 35  1  0
 21 36  1  0
 25 37  1  0
M  CHG  2  12  -1  24  -1
M  END
>  <UniqueID>  (51) 
51

>  <SMILES>  (51) 
CCOC(=O)OC(=O)n1c(C([NH-])=O)cc2ccc(C(F)=CC(=O)[O-])cc21

>  <Energy>  (51) 
80.63491216773564

>  <Genealogy>  (51) 
CCOC(=O)OC(=O)n1c(C([NH-])=O)cc2ccc(C(F)=CC(=O)[O-])cc21 (protonated)
CCOC(=O)OC(=O)n1c(C([NH-])=O)cc2ccc(C(F)=CC(=O)[O-])cc21 (3D coordinates assigned)
CCOC(=O)OC(=O)n1c(C([NH-])=O)cc2ccc(C(F)=CC(=O)[O-])cc21 (optimized conformer: 80.63491216773564 kcal/mol)

>  <smiles>  (51) 
CCOC(=O)OC(=O)n1c(C(N)=O)cc2ccc(C(F)=CC(=O)O)cc21

>  <score_type>  (51) 
oracle

>  <origin>  (51) 
adg

>  <m_score__min__energy>  (51) 
-6.8300000000000001

>  <m_primary>  (51) 
energy

$$$$
53:0
     RDKit          3D

 39 40  0  0  0  0  0  0  0  0999 V2000
  141.7460  152.0830  134.7500 C   0  0  0  0  0  0  0  0  0  0  0  0
  141.5060  152.4060  133.2650 C   0  0  0  0  0  0  0  0  0  0  0  0
  142.8570  152.7640  132.6100 C   0  0  0  0  0  0  0  0  0  0  0  0
  140.5900  153.5580  133.1570 N   0  0  0  0  0  0  0  0  0  0  0  0
  140.8790  154.8660  133.6870 C   0  0  0  0  0  0  0  0  0  0  0  0
  141.9760  155.0890  134.2670 O   0  0  0  0  0  0  0  0  0  0  0  0
  139.9010  155.9610  133.5550 C   0  0  0  0  0  0  0  0  0  0  0  0
  138.8170  155.7670  132.9410 O   0  0  0  0  0  0  0  0  0  0  0  0
  140.1710  157.2540  134.1190 N   0  0  0  0  0  0  0  0  0  0  0  0
  140.1990  158.4540  133.4770 C   0  0  0  0  0  0  0  0  0  0  0  0
  139.8290  158.6910  132.0660 C   0  0  0  0  0  0  0  0  0  0  0  0
  138.5810  158.2400  131.5470 N   0  0  0  0  0  0  0  0  0  0  0  0
  140.6140  159.3290  131.3140 O   0  0  0  0  0  0  0  0  0  0  0  0
  140.5830  159.4660  134.3560 C   0  0  0  0  0  0  0  0  0  0  0  0
  140.7920  158.8410  135.5660 C   0  0  0  0  0  0  0  0  0  0  0  0
  141.2140  159.3630  136.7840 C   0  0  0  0  0  0  0  0  0  0  0  0
  141.3810  158.4730  137.8590 C   0  0  0  0  0  0  0  0  0  0  0  0
  141.1180  157.0870  137.7030 C   0  0  0  0  0  0  0  0  0  0  0  0
  141.3580  156.1350  138.8460 C   0  0  0  0  0  0  0  0  0  0  0  0
  140.2010  155.4400  139.1550 F   0  0  0  0  0  0  0  0  0  0  0  0
  142.3400  155.2150  138.5170 F   0  0  0  0  0  0  0  0  0  0  0  0
  141.7660  156.8500  139.9560 F   0  0  0  0  0  0  0  0  0  0  0  0
  140.7170  156.5930  136.4400 C   0  0  0  0  0  0  0  0  0  0  0  0
  140.5390  157.5060  135.3940 C   0  0  0  0  0  0  0  0  0  0  0  0
  140.8860  151.1880  132.6140 C   0  0  0  0  0  0  0  0  0  0  0  0
  141.5020  150.0880  132.5840 O   0  0  0  0  0  0  0  0  0  0  0  0
  139.5890  151.2490  132.1150 O   0  0  0  0  0  0  0  0  0  0  0  0
  141.2062  152.8095  135.3752 H   0  0  0  0  0  0  0  0  0  0  0  0
  141.3808  151.0686  134.9683 H   0  0  0  0  0  0  0  0  0  0  0  0
  142.8226  152.1399  134.9683 H   0  0  0  0  0  0  0  0  0  0  0  0
  143.6033  152.9618  133.3935 H   0  0  0  0  0  0  0  0  0  0  0  0
  143.1953  151.9245  131.9849 H   0  0  0  0  0  0  0  0  0  0  0  0
  142.7352  153.6609  131.9849 H   0  0  0  0  0  0  0  0  0  0  0  0
  139.6810  153.4280  132.6580 H   0  0  0  0  0  0  0  0  0  0  0  0
  137.9790  157.5820  132.0900 H   0  0  0  0  0  0  0  0  0  0  0  0
  140.6953  160.5369  134.1310 H   0  0  0  0  0  0  0  0  0  0  0  0
  141.4109  160.4387  136.9024 H   0  0  0  0  0  0  0  0  0  0  0  0
  141.7197  158.8554  138.8332 H   0  0  0  0  0  0  0  0  0  0  0  0
  140.5490  155.5172  136.2834 H   0  0  0  0  0  0  0  0  0  0  0  0
  1  2  1  0
  2  3  1  0
  2  4  1  0
  4  5  1  0
  5  6  2  0
  5  7  1  0
  7  8  2  0
  7  9  1  0
  9 10  1  0
 10 11  1  0
 11 12  1  0
 11 13  2  0
 10 14  2  0
 14 15  1  0
 15 16  2  0
 16 17  1  0
 17 18  2  0
 18 19  1  0
 19 20  1  0
 19 21  1  0
 19 22  1  0
 18 23  1  0
 23 24  2  0
  2 25  1  0
 25 26  2  0
 25 27  1  0
 24  9  1  0
 24 15  1  0
  1 28  1  0
  1 29  1  0
  1 30  1  0
  3 31  1  0
  3 32  1  0
  3 33  1  0
  4 34  1  0
 12 35  1  0
 14 36  1  0
 16 37  1  0
 17 38  1  0
 23 39  1  0
M  CHG  2  12  -1  27  -1
M  END
>  <UniqueID>  (52) 
52

>  <SMILES>  (52) 
CC(C)(NC(=O)C(=O)n1c(C([NH-])=O)cc2ccc(C(F)(F)F)cc21)C(=O)[O-]

>  <Energy>  (52) 
76.66938786031555

>  <Genealogy>  (52) 
CC(C)(NC(=O)C(=O)n1c(C([NH-])=O)cc2ccc(C(F)(F)F)cc21)C(=O)[O-] (protonated)
CC(C)(NC(=O)C(=O)n1c(C([NH-])=O)cc2ccc(C(F)(F)F)cc21)C(=O)[O-] (3D coordinates assigned)
CC(C)(NC(=O)C(=O)n1c(C([NH-])=O)cc2ccc(C(F)(F)F)cc21)C(=O)[O-] (optimized conformer: 76.66938786031555 kcal/mol)

>  <smiles>  (52) 
CC(C)(NC(=O)C(=O)n1c(C(N)=O)cc2ccc(C(F)(F)F)cc21)C(=O)O

>  <score_type>  (52) 
oracle

>  <origin>  (52) 
adg

>  <m_score__min__energy>  (52) 
-7

>  <m_primary>  (52) 
energy

$$$$
54:0
     RDKit          3D

 51 52  0  0  0  0  0  0  0  0999 V2000
  143.4690  154.9800  134.1670 C   0  0  0  0  0  0  0  0  0  0  0  0
  143.9970  154.8640  135.5880 C   0  0  0  0  0  0  0  0  0  0  0  0
  145.3790  155.1990  135.6100 O   0  0  0  0  0  0  0  0  0  0  0  0
  146.3790  154.3100  135.2040 C   0  0  0  0  0  0  0  0  0  0  0  0
  147.0550  153.6710  136.0550 O   0  0  0  0  0  0  0  0  0  0  0  0
  146.6170  154.0730  133.7440 C   0  0  0  0  0  0  0  0  0  0  0  0
  147.6440  154.9890  133.2250 N   0  0  0  0  0  0  0  0  0  0  0  0
  148.8490  154.4140  132.6140 C   0  0  0  0  0  0  0  0  0  0  0  0
  147.4610  156.4280  133.2630 C   0  0  0  0  0  0  0  0  0  0  0  0
  148.5700  157.3090  133.1190 C   0  0  0  0  0  0  0  0  0  0  0  0
  148.3980  158.7030  133.1540 C   0  0  0  0  0  0  0  0  0  0  0  0
  147.1130  159.1980  133.3410 C   0  0  0  0  0  0  0  0  0  0  0  0
  146.6630  160.4980  133.3930 C   0  0  0  0  0  0  0  0  0  0  0  0
  145.2880  160.4050  133.5950 C   0  0  0  0  0  0  0  0  0  0  0  0
  144.4150  161.5800  133.8030 C   0  0  0  0  0  0  0  0  0  0  0  0
  142.9970  161.4660  133.7110 N   0  0  0  0  0  0  0  0  0  0  0  0
  144.9260  162.6880  134.1120 O   0  0  0  0  0  0  0  0  0  0  0  0
  144.9020  159.0990  133.6540 N   0  0  0  0  0  0  0  0  0  0  0  0
  143.5730  158.5720  133.7790 C   0  0  0  0  0  0  0  0  0  0  0  0
  143.0760  157.9000  132.8350 O   0  0  0  0  0  0  0  0  0  0  0  0
  142.8580  158.7870  134.9660 O   0  0  0  0  0  0  0  0  0  0  0  0
  141.4410  158.6630  135.1420 C   0  0  0  0  0  0  0  0  0  0  0  0
  140.6920  159.2120  133.9120 C   0  0  0  0  0  0  0  0  0  0  0  0
  140.9880  159.3890  136.4240 C   0  0  0  0  0  0  0  0  0  0  0  0
  141.1310  157.1650  135.2820 C   0  0  0  0  0  0  0  0  0  0  0  0
  146.0320  158.3740  133.5010 C   0  0  0  0  0  0  0  0  0  0  0  0
  146.1690  156.9820  133.4480 C   0  0  0  0  0  0  0  0  0  0  0  0
  142.3949  155.2160  134.1931 H   0  0  0  0  0  0  0  0  0  0  0  0
  144.0077  155.7812  133.6399 H   0  0  0  0  0  0  0  0  0  0  0  0
  143.6223  154.0268  133.6399 H   0  0  0  0  0  0  0  0  0  0  0  0
  143.4425  155.5527  136.2424 H   0  0  0  0  0  0  0  0  0  0  0  0
  143.8646  153.8319  135.9448 H   0  0  0  0  0  0  0  0  0  0  0  0
  146.9522  153.0356  133.5973 H   0  0  0  0  0  0  0  0  0  0  0  0
  145.6777  154.2533  133.2006 H   0  0  0  0  0  0  0  0  0  0  0  0
  149.5394  154.0846  133.4045 H   0  0  0  0  0  0  0  0  0  0  0  0
  148.5684  153.5528  131.9899 H   0  0  0  0  0  0  0  0  0  0  0  0
  149.3420  155.1739  131.9899 H   0  0  0  0  0  0  0  0  0  0  0  0
  149.5779  156.8916  132.9781 H   0  0  0  0  0  0  0  0  0  0  0  0
  149.2551  159.3825  133.0369 H   0  0  0  0  0  0  0  0  0  0  0  0
  147.2621  161.4154  133.2957 H   0  0  0  0  0  0  0  0  0  0  0  0
  142.5320  160.5310  133.7250 H   0  0  0  0  0  0  0  0  0  0  0  0
  139.8463  159.8319  134.2443 H   0  0  0  0  0  0  0  0  0  0  0  0
  141.3786  159.8223  133.3069 H   0  0  0  0  0  0  0  0  0  0  0  0
  140.3166  158.3736  133.3069 H   0  0  0  0  0  0  0  0  0  0  0  0
  141.3369  158.8299  137.3047 H   0  0  0  0  0  0  0  0  0  0  0  0
  141.4139  160.4031  136.4411 H   0  0  0  0  0  0  0  0  0  0  0  0
  139.8900  159.4522  136.4411 H   0  0  0  0  0  0  0  0  0  0  0  0
  141.0762  156.9000  136.3482 H   0  0  0  0  0  0  0  0  0  0  0  0
  140.1679  156.9432  134.7990 H   0  0  0  0  0  0  0  0  0  0  0  0
  141.9269  156.5791  134.7990 H   0  0  0  0  0  0  0  0  0  0  0  0
  145.2894  156.3291  133.5481 H   0  0  0  0  0  0  0  0  0  0  0  0
  1  2  1  0
  2  3  1  0
  3  4  1  0
  4  5  2  0
  4  6  1  0
  6  7  1  0
  7  8  1  0
  7  9  1  0
  9 10  2  0
 10 11  1  0
 11 12  2  0
 12 13  1  0
 13 14  2  0
 14 15  1  0
 15 16  1  0
 15 17  2  0
 14 18  1  0
 18 19  1  0
 19 20  2  0
 19 21  1  0
 21 22  1  0
 22 23  1  0
 22 24  1  0
 22 25  1  0
 18 26  1  0
 26 27  2  0
 27  9  1  0
 26 12  1  0
  1 28  1  0
  1 29  1  0
  1 30  1  0
  2 31  1  0
  2 32  1  0
  6 33  1  0
  6 34  1  0
  8 35  1  0
  8 36  1  0
  8 37  1  0
 10 38  1  0
 11 39  1  0
 13 40  1  0
 16 41  1  0
 23 42  1  0
 23 43  1  0
 23 44  1  0
 24 45  1  0
 24 46  1  0
 24 47  1  0
 25 48  1  0
 25 49  1  0
 25 50  1  0
 27 51  1  0
M  CHG  1  16  -1
M  END
>  <UniqueID>  (53) 
53

>  <SMILES>  (53) 
CCOC(=O)CN(C)c1ccc2cc(C([NH-])=O)n(C(=O)OC(C)(C)C)c2c1

>  <Energy>  (53) 
80.06212666888685

>  <Genealogy>  (53) 
CCOC(=O)CN(C)c1ccc2cc(C([NH-])=O)n(C(=O)OC(C)(C)C)c2c1 (protonated)
CCOC(=O)CN(C)c1ccc2cc(C([NH-])=O)n(C(=O)OC(C)(C)C)c2c1 (3D coordinates assigned)
CCOC(=O)CN(C)c1ccc2cc(C([NH-])=O)n(C(=O)OC(C)(C)C)c2c1 (optimized conformer: 80.06212666888685 kcal/mol)

>  <smiles>  (53) 
CCOC(=O)CN(C)c1ccc2cc(C(N)=O)n(C(=O)OC(C)(C)C)c2c1

>  <score_type>  (53) 
oracle

>  <origin>  (53) 
adg

>  <m_score__min__energy>  (53) 
-7.0199999999999996

>  <m_primary>  (53) 
energy

$$$$
55:0
     RDKit          3D

 39 40  0  0  0  0  0  0  0  0999 V2000
  149.2540  161.9700  130.3760 C   0  0  0  0  0  0  0  0  0  0  0  0
  149.0250  160.6940  131.1320 C   0  0  0  0  0  0  0  0  0  0  0  0
  149.9970  159.6640  131.0930 C   0  0  0  0  0  0  0  0  0  0  0  0
  149.7740  158.4450  131.7550 C   0  0  0  0  0  0  0  0  0  0  0  0
  148.5720  158.2860  132.4400 C   0  0  0  0  0  0  0  0  0  0  0  0
  148.0890  157.2030  133.1390 C   0  0  0  0  0  0  0  0  0  0  0  0
  146.8330  157.5910  133.6000 C   0  0  0  0  0  0  0  0  0  0  0  0
  145.9960  156.7480  134.4800 C   0  0  0  0  0  0  0  0  0  0  0  0
  144.5760  156.8720  134.4800 N   0  0  0  0  0  0  0  0  0  0  0  0
  146.5440  155.9420  135.2770 O   0  0  0  0  0  0  0  0  0  0  0  0
  146.5460  158.8610  133.1940 N   0  0  0  0  0  0  0  0  0  0  0  0
  145.3280  159.5970  133.3900 C   0  0  0  0  0  0  0  0  0  0  0  0
  145.3470  160.6750  134.0440 O   0  0  0  0  0  0  0  0  0  0  0  0
  144.1280  159.0900  132.8740 O   0  0  0  0  0  0  0  0  0  0  0  0
  142.8610  159.2760  133.4430 C   0  0  0  0  0  0  0  0  0  0  0  0
  142.6180  160.2850  134.1590 O   0  0  0  0  0  0  0  0  0  0  0  0
  141.8280  158.2440  133.2240 C   0  0  0  0  0  0  0  0  0  0  0  0
  142.1600  157.2000  132.6010 O   0  0  0  0  0  0  0  0  0  0  0  0
  140.4720  158.3780  133.7080 N   0  0  0  0  0  0  0  0  0  0  0  0
  140.2270  158.2700  135.1490 C   0  0  0  0  0  0  0  0  0  0  0  0
  139.3280  158.5120  132.7960 C   0  0  0  0  0  0  0  0  0  0  0  0
  139.3240  159.8590  132.1380 C   0  0  0  0  0  0  0  0  0  0  0  0
  138.5140  160.1020  131.2050 O   0  0  0  0  0  0  0  0  0  0  0  0
  140.1710  160.8640  132.5890 O   0  0  0  0  0  0  0  0  0  0  0  0
  147.6220  159.2740  132.4890 C   0  0  0  0  0  0  0  0  0  0  0  0
  147.8110  160.4900  131.8220 C   0  0  0  0  0  0  0  0  0  0  0  0
  149.4022  162.7960  131.0872 H   0  0  0  0  0  0  0  0  0  0  0  0
  150.1478  161.8660  129.7434 H   0  0  0  0  0  0  0  0  0  0  0  0
  148.3798  162.1833  129.7434 H   0  0  0  0  0  0  0  0  0  0  0  0
  150.9347  159.8201  130.5395 H   0  0  0  0  0  0  0  0  0  0  0  0
  150.5251  157.6416  131.7329 H   0  0  0  0  0  0  0  0  0  0  0  0
  148.5888  156.2363  133.2995 H   0  0  0  0  0  0  0  0  0  0  0  0
  144.0580  157.1220  133.6090 H   0  0  0  0  0  0  0  0  0  0  0  0
  141.0987  158.6543  135.6989 H   0  0  0  0  0  0  0  0  0  0  0  0
  139.3369  158.8592  135.4148 H   0  0  0  0  0  0  0  0  0  0  0  0
  140.0615  157.2155  135.4148 H   0  0  0  0  0  0  0  0  0  0  0  0
  139.3913  157.7331  132.0219 H   0  0  0  0  0  0  0  0  0  0  0  0
  138.4004  158.4016  133.3768 H   0  0  0  0  0  0  0  0  0  0  0  0
  147.0327  161.2672  131.8354 H   0  0  0  0  0  0  0  0  0  0  0  0
  1  2  1  0
  2  3  2  0
  3  4  1  0
  4  5  2  0
  5  6  1  0
  6  7  2  0
  7  8  1  0
  8  9  1  0
  8 10  2  0
  7 11  1  0
 11 12  1  0
 12 13  2  0
 12 14  1  0
 14 15  1  0
 15 16  2  0
 15 17  1  0
 17 18  2  0
 17 19  1  0
 19 20  1  0
 19 21  1  0
 21 22  1  0
 22 23  2  0
 22 24  1  0
 11 25  1  0
 25 26  2  0
 26  2  1  0
 25  5  1  0
  1 27  1  0
  1 28  1  0
  1 29  1  0
  3 30  1  0
  4 31  1  0
  6 32  1  0
  9 33  1  0
 20 34  1  0
 20 35  1  0
 20 36  1  0
 21 37  1  0
 21 38  1  0
 26 39  1  0
M  CHG  2   9  -1  24  -1
M  END
>  <UniqueID>  (54) 
54

>  <SMILES>  (54) 
Cc1ccc2cc(C([NH-])=O)n(C(=O)OC(=O)C(=O)N(C)CC(=O)[O-])c2c1

>  <Energy>  (54) 
78.7281425688471

>  <Genealogy>  (54) 
Cc1ccc2cc(C([NH-])=O)n(C(=O)OC(=O)C(=O)N(C)CC(=O)[O-])c2c1 (protonated)
Cc1ccc2cc(C([NH-])=O)n(C(=O)OC(=O)C(=O)N(C)CC(=O)[O-])c2c1 (3D coordinates assigned)
Cc1ccc2cc(C([NH-])=O)n(C(=O)OC(=O)C(=O)N(C)CC(=O)[O-])c2c1 (optimized conformer: 78.7281425688471 kcal/mol)

>  <smiles>  (54) 
Cc1ccc2cc(C(N)=O)n(C(=O)OC(=O)C(=O)N(C)CC(=O)O)c2c1

>  <score_type>  (54) 
oracle

>  <origin>  (54) 
adg

>  <m_score__min__energy>  (54) 
-6.9199999999999999

>  <m_primary>  (54) 
energy

$$$$
56:0
     RDKit          3D

 46 47  0  0  0  0  0  0  0  0999 V2000
  148.4840  155.5840  132.9730 C   0  0  0  0  0  0  0  0  0  0  0  0
  147.8220  156.9180  133.1340 C   0  0  0  0  0  0  0  0  0  0  0  0
  148.5800  158.1040  132.9750 C   0  0  0  0  0  0  0  0  0  0  0  0
  147.9650  159.3640  133.0700 C   0  0  0  0  0  0  0  0  0  0  0  0
  146.5960  159.4050  133.3200 C   0  0  0  0  0  0  0  0  0  0  0  0
  145.7450  160.4830  133.4220 C   0  0  0  0  0  0  0  0  0  0  0  0
  144.4850  159.9370  133.6540 C   0  0  0  0  0  0  0  0  0  0  0  0
  143.2830  160.7490  133.9250 C   0  0  0  0  0  0  0  0  0  0  0  0
  142.1070  160.1500  134.4670 N   0  0  0  0  0  0  0  0  0  0  0  0
  143.3110  161.9930  133.7260 O   0  0  0  0  0  0  0  0  0  0  0  0
  144.5500  158.5780  133.6870 N   0  0  0  0  0  0  0  0  0  0  0  0
  143.4580  157.6500  133.7900 C   0  0  0  0  0  0  0  0  0  0  0  0
  143.4980  156.7340  134.6540 O   0  0  0  0  0  0  0  0  0  0  0  0
  142.3800  157.7500  132.8980 O   0  0  0  0  0  0  0  0  0  0  0  0
  141.1090  157.1920  133.1060 C   0  0  0  0  0  0  0  0  0  0  0  0
  140.9410  155.9420  133.0590 O   0  0  0  0  0  0  0  0  0  0  0  0
  139.9840  158.0550  133.3580 N   0  0  0  0  0  0  0  0  0  0  0  0
  139.7290  159.1770  132.4520 C   0  0  0  0  0  0  0  0  0  0  0  0
  139.1650  157.8630  134.5650 C   0  0  0  0  0  0  0  0  0  0  0  0
  139.7820  158.5940  135.7840 C   0  0  0  0  0  0  0  0  0  0  0  0
  141.0930  158.0700  136.2300 N   0  0  0  0  0  0  0  0  0  0  0  0
  141.0480  156.6500  136.6120 C   0  0  0  0  0  0  0  0  0  0  0  0
  141.7210  158.8950  137.2750 C   0  0  0  0  0  0  0  0  0  0  0  0
  145.8500  158.2660  133.4820 C   0  0  0  0  0  0  0  0  0  0  0  0
  146.4320  156.9980  133.3720 C   0  0  0  0  0  0  0  0  0  0  0  0
  148.6956  155.1576  133.9647 H   0  0  0  0  0  0  0  0  0  0  0  0
  147.8167  154.9081  132.4181 H   0  0  0  0  0  0  0  0  0  0  0  0
  149.4258  155.7066  132.4181 H   0  0  0  0  0  0  0  0  0  0  0  0
  149.6597  158.0382  132.7754 H   0  0  0  0  0  0  0  0  0  0  0  0
  148.5474  160.2895  132.9505 H   0  0  0  0  0  0  0  0  0  0  0  0
  146.0051  161.5485  133.3381 H   0  0  0  0  0  0  0  0  0  0  0  0
  142.0310  159.1130  134.5670 H   0  0  0  0  0  0  0  0  0  0  0  0
  139.5230  160.0836  133.0400 H   0  0  0  0  0  0  0  0  0  0  0  0
  140.6121  159.3441  131.8178 H   0  0  0  0  0  0  0  0  0  0  0  0
  138.8604  158.9461  131.8178 H   0  0  0  0  0  0  0  0  0  0  0  0
  138.1562  158.2611  134.3810 H   0  0  0  0  0  0  0  0  0  0  0  0
  139.1228  156.7870  134.7893 H   0  0  0  0  0  0  0  0  0  0  0  0
  139.9108  159.6534  135.5173 H   0  0  0  0  0  0  0  0  0  0  0  0
  139.0867  158.4359  136.6216 H   0  0  0  0  0  0  0  0  0  0  0  0
  141.0453  156.5652  137.7087 H   0  0  0  0  0  0  0  0  0  0  0  0
  140.1348  156.1899  136.2064 H   0  0  0  0  0  0  0  0  0  0  0  0
  141.9302  156.1331  136.2064 H   0  0  0  0  0  0  0  0  0  0  0  0
  141.4315  158.5147  138.2657 H   0  0  0  0  0  0  0  0  0  0  0  0
  142.8150  158.8494  137.1701 H   0  0  0  0  0  0  0  0  0  0  0  0
  141.3857  159.9374  137.1701 H   0  0  0  0  0  0  0  0  0  0  0  0
  145.8227  156.0872  133.4684 H   0  0  0  0  0  0  0  0  0  0  0  0
  1  2  1  0
  2  3  2  0
  3  4  1  0
  4  5  2  0
  5  6  1  0
  6  7  2  0
  7  8  1  0
  8  9  1  0
  8 10  2  0
  7 11  1  0
 11 12  1  0
 12 13  2  0
 12 14  1  0
 14 15  1  0
 15 16  2  0
 15 17  1  0
 17 18  1  0
 17 19  1  0
 19 20  1  0
 20 21  1  0
 21 22  1  0
 21 23  1  0
 11 24  1  0
 24 25  2  0
 25  2  1  0
 24  5  1  0
  1 26  1  0
  1 27  1  0
  1 28  1  0
  3 29  1  0
  4 30  1  0
  6 31  1  0
  9 32  1  0
 18 33  1  0
 18 34  1  0
 18 35  1  0
 19 36  1  0
 19 37  1  0
 20 38  1  0
 20 39  1  0
 22 40  1  0
 22 41  1  0
 22 42  1  0
 23 43  1  0
 23 44  1  0
 23 45  1  0
 25 46  1  0
M  CHG  1   9  -1
M  END
>  <UniqueID>  (55) 
55

>  <SMILES>  (55) 
Cc1ccc2cc(C([NH-])=O)n(C(=O)OC(=O)N(C)CCN(C)C)c2c1

>  <Energy>  (55) 
85.8271043107777

>  <Genealogy>  (55) 
Cc1ccc2cc(C([NH-])=O)n(C(=O)OC(=O)N(C)CCN(C)C)c2c1 (protonated)
Cc1ccc2cc(C([NH-])=O)n(C(=O)OC(=O)N(C)CCN(C)C)c2c1 (3D coordinates assigned)
Cc1ccc2cc(C([NH-])=O)n(C(=O)OC(=O)N(C)CCN(C)C)c2c1 (optimized conformer: 85.8271043107777 kcal/mol)

>  <smiles>  (55) 
Cc1ccc2cc(C(N)=O)n(C(=O)OC(=O)N(C)CCN(C)C)c2c1

>  <score_type>  (55) 
oracle

>  <origin>  (55) 
adg

>  <m_score__min__energy>  (55) 
-6.9199999999999999

>  <m_primary>  (55) 
energy

$$$$
57:0
     RDKit          3D

 39 41  0  0  0  0  0  0  0  0999 V2000
  141.9410  157.7100  132.2390 N   0  0  0  0  0  0  0  0  0  0  0  0
  142.1830  158.5490  133.3710 C   0  0  0  0  0  0  0  0  0  0  0  0
  142.6120  159.7190  133.1850 O   0  0  0  0  0  0  0  0  0  0  0  0
  141.8960  158.0700  134.7420 C   0  0  0  0  0  0  0  0  0  0  0  0
  141.9380  158.8850  135.8710 C   0  0  0  0  0  0  0  0  0  0  0  0
  141.7170  158.0430  136.9360 C   0  0  0  0  0  0  0  0  0  0  0  0
  141.6600  158.3210  138.2980 C   0  0  0  0  0  0  0  0  0  0  0  0
  141.4030  157.2570  139.1780 C   0  0  0  0  0  0  0  0  0  0  0  0
  141.1820  155.9440  138.6860 C   0  0  0  0  0  0  0  0  0  0  0  0
  140.9470  154.8030  139.6420 C   0  0  0  0  0  0  0  0  0  0  0  0
  139.6830  154.2670  139.4600 F   0  0  0  0  0  0  0  0  0  0  0  0
  141.8900  153.8180  139.4160 F   0  0  0  0  0  0  0  0  0  0  0  0
  141.0490  155.2340  140.9530 F   0  0  0  0  0  0  0  0  0  0  0  0
  141.2720  155.6990  137.2950 C   0  0  0  0  0  0  0  0  0  0  0  0
  141.5490  156.7750  136.4420 C   0  0  0  0  0  0  0  0  0  0  0  0
  141.6560  156.7750  135.0950 N   0  0  0  0  0  0  0  0  0  0  0  0
  141.4920  155.6430  134.2240 C   0  0  0  0  0  0  0  0  0  0  0  0
  142.4800  155.1880  133.5870 O   0  0  0  0  0  0  0  0  0  0  0  0
  140.2310  155.0600  134.0760 O   0  0  0  0  0  0  0  0  0  0  0  0
  139.4760  155.1470  132.8710 C   0  0  0  0  0  0  0  0  0  0  0  0
  139.6010  156.4530  132.3220 O   0  0  0  0  0  0  0  0  0  0  0  0
  138.9650  157.5730  132.8700 C   0  0  0  0  0  0  0  0  0  0  0  0
  138.6330  157.5900  134.0860 O   0  0  0  0  0  0  0  0  0  0  0  0
  138.6850  158.7370  132.0220 C   0  0  0  0  0  0  0  0  0  0  0  0
  137.5290  158.9450  131.2820 C   0  0  0  0  0  0  0  0  0  0  0  0
  137.5440  160.1460  130.5620 C   0  0  0  0  0  0  0  0  0  0  0  0
  138.7100  160.8830  130.7310 C   0  0  0  0  0  0  0  0  0  0  0  0
  139.7210  160.0400  131.7770 S   0  0  0  0  0  0  0  0  0  0  0  0
  142.1090  158.0710  131.2750 H   0  0  0  0  0  0  0  0  0  0  0  0
  141.6360  156.7180  132.3550 H   0  0  0  0  0  0  0  0  0  0  0  0
  142.1111  159.9708  135.9038 H   0  0  0  0  0  0  0  0  0  0  0  0
  141.8117  159.3434  138.6743 H   0  0  0  0  0  0  0  0  0  0  0  0
  141.3726  157.4434  140.2617 H   0  0  0  0  0  0  0  0  0  0  0  0
  141.1276  154.6856  136.8924 H   0  0  0  0  0  0  0  0  0  0  0  0
  139.8537  154.4086  132.1484 H   0  0  0  0  0  0  0  0  0  0  0  0
  138.4173  154.9422  133.0881 H   0  0  0  0  0  0  0  0  0  0  0  0
  136.6865  158.2380  131.2631 H   0  0  0  0  0  0  0  0  0  0  0  0
  136.7114  160.4750  129.9229 H   0  0  0  0  0  0  0  0  0  0  0  0
  138.9333  161.8521  130.2609 H   0  0  0  0  0  0  0  0  0  0  0  0
  1  2  1  0
  2  3  2  0
  2  4  1  0
  4  5  2  0
  5  6  1  0
  6  7  2  0
  7  8  1  0
  8  9  2  0
  9 10  1  0
 10 11  1  0
 10 12  1  0
 10 13  1  0
  9 14  1  0
 14 15  2  0
 15 16  1  0
 16 17  1  0
 17 18  2  0
 17 19  1  0
 19 20  1  0
 20 21  1  0
 21 22  1  0
 22 23  2  0
 22 24  1  0
 24 25  2  0
 25 26  1  0
 26 27  2  0
 27 28  1  0
 16  4  1  0
 28 24  1  0
 15  6  1  0
  1 29  1  0
  1 30  1  0
  5 31  1  0
  7 32  1  0
  8 33  1  0
 14 34  1  0
 20 35  1  0
 20 36  1  0
 25 37  1  0
 26 38  1  0
 27 39  1  0
M  END
>  <UniqueID>  (56) 
56

>  <SMILES>  (56) 
NC(=O)c1cc2ccc(C(F)(F)F)cc2n1C(=O)OCOC(=O)c1cccs1

>  <Energy>  (56) 
102.07184463701886

>  <Genealogy>  (56) 
NC(=O)c1cc2ccc(C(F)(F)F)cc2n1C(=O)OCOC(=O)c1cccs1 (3D coordinates assigned)
NC(=O)c1cc2ccc(C(F)(F)F)cc2n1C(=O)OCOC(=O)c1cccs1 (optimized conformer: 102.07184463701886 kcal/mol)

>  <smiles>  (56) 
NC(=O)c1cc2ccc(C(F)(F)F)cc2n1C(=O)OCOC(=O)c1cccs1

>  <score_type>  (56) 
oracle

>  <origin>  (56) 
adg

>  <m_score__min__energy>  (56) 
-6.9699999999999998

>  <m_primary>  (56) 
energy

$$$$
58:0
     RDKit          3D

 35 36  0  0  0  0  0  0  0  0999 V2000
  148.4230  154.2040  133.3260 C   0  0  0  0  0  0  0  0  0  0  0  0
  147.6680  154.8660  132.2600 N   0  0  0  0  0  0  0  0  0  0  0  0
  147.5890  156.2840  132.5140 C   0  0  0  0  0  0  0  0  0  0  0  0
  148.7530  157.0900  132.4250 C   0  0  0  0  0  0  0  0  0  0  0  0
  148.6910  158.4690  132.6850 C   0  0  0  0  0  0  0  0  0  0  0  0
  147.4610  159.0100  133.0480 C   0  0  0  0  0  0  0  0  0  0  0  0
  147.1180  160.3110  133.3370 C   0  0  0  0  0  0  0  0  0  0  0  0
  145.7580  160.2770  133.6360 C   0  0  0  0  0  0  0  0  0  0  0  0
  144.9970  161.4580  134.0930 C   0  0  0  0  0  0  0  0  0  0  0  0
  143.5960  161.5670  133.8560 N   0  0  0  0  0  0  0  0  0  0  0  0
  145.5840  162.3630  134.7450 O   0  0  0  0  0  0  0  0  0  0  0  0
  145.2770  159.0050  133.5260 N   0  0  0  0  0  0  0  0  0  0  0  0
  143.9210  158.5570  133.6770 C   0  0  0  0  0  0  0  0  0  0  0  0
  143.3110  158.7440  134.7660 O   0  0  0  0  0  0  0  0  0  0  0  0
  143.2730  157.9400  132.6030 O   0  0  0  0  0  0  0  0  0  0  0  0
  141.9340  157.4600  132.6810 C   0  0  0  0  0  0  0  0  0  0  0  0
  140.9970  158.6120  133.0150 C   0  0  0  0  0  0  0  0  0  0  0  0
  141.5770  159.8250  132.6220 O   0  0  0  0  0  0  0  0  0  0  0  0
  146.3330  158.2420  133.1690 C   0  0  0  0  0  0  0  0  0  0  0  0
  146.3600  156.8700  132.8940 C   0  0  0  0  0  0  0  0  0  0  0  0
  148.0444  154.5359  134.3040 H   0  0  0  0  0  0  0  0  0  0  0  0
  148.3037  153.1141  133.2374 H   0  0  0  0  0  0  0  0  0  0  0  0
  149.4880  154.4647  133.2374 H   0  0  0  0  0  0  0  0  0  0  0  0
  146.7050  154.4560  132.2140 H   0  0  0  0  0  0  0  0  0  0  0  0
  148.1380  154.6880  131.3430 H   0  0  0  0  0  0  0  0  0  0  0  0
  149.7137  156.6305  132.1496 H   0  0  0  0  0  0  0  0  0  0  0  0
  149.5870  159.1019  132.6042 H   0  0  0  0  0  0  0  0  0  0  0  0
  147.7779  161.1911  133.3328 H   0  0  0  0  0  0  0  0  0  0  0  0
  142.9630  160.7480  133.9900 H   0  0  0  0  0  0  0  0  0  0  0  0
  141.6453  157.0219  131.7142 H   0  0  0  0  0  0  0  0  0  0  0  0
  141.8659  156.6941  133.4676 H   0  0  0  0  0  0  0  0  0  0  0  0
  140.0442  158.4736  132.4831 H   0  0  0  0  0  0  0  0  0  0  0  0
  140.8167  158.6305  134.1000 H   0  0  0  0  0  0  0  0  0  0  0  0
  142.4390  159.8880  133.1080 H   0  0  0  0  0  0  0  0  0  0  0  0
  145.4465  156.2621  132.9717 H   0  0  0  0  0  0  0  0  0  0  0  0
  1  2  1  0
  2  3  1  0
  3  4  2  0
  4  5  1  0
  5  6  2  0
  6  7  1  0
  7  8  2  0
  8  9  1  0
  9 10  1  0
  9 11  2  0
  8 12  1  0
 12 13  1  0
 13 14  2  0
 13 15  1  0
 15 16  1  0
 16 17  1  0
 17 18  1  0
 12 19  1  0
 19 20  2  0
 20  3  1  0
 19  6  1  0
  1 21  1  0
  1 22  1  0
  1 23  1  0
  2 24  1  0
  2 25  1  0
  4 26  1  0
  5 27  1  0
  7 28  1  0
 10 29  1  0
 16 30  1  0
 16 31  1  0
 17 32  1  0
 17 33  1  0
 18 34  1  0
 20 35  1  0
M  CHG  2   2   1  10  -1
M  END
>  <UniqueID>  (57) 
57

>  <SMILES>  (57) 
C[NH2+]c1ccc2cc(C([NH-])=O)n(C(=O)OCCO)c2c1

>  <Energy>  (57) 
68.80915490612682

>  <Genealogy>  (57) 
C[NH2+]c1ccc2cc(C([NH-])=O)n(C(=O)OCCO)c2c1 (protonated)
C[NH2+]c1ccc2cc(C([NH-])=O)n(C(=O)OCCO)c2c1 (3D coordinates assigned)
C[NH2+]c1ccc2cc(C([NH-])=O)n(C(=O)OCCO)c2c1 (optimized conformer: 68.80915490612682 kcal/mol)

>  <smiles>  (57) 
CNc1ccc2cc(C(N)=O)n(C(=O)OCCO)c2c1

>  <score_type>  (57) 
oracle

>  <origin>  (57) 
adg

>  <m_score__min__energy>  (57) 
-5.0499999999999998

>  <m_primary>  (57) 
energy

$$$$
59:0
     RDKit          3D

 40 41  0  0  0  0  0  0  0  0999 V2000
  149.8740  150.7030  131.9030 C   0  0  0  0  0  0  0  0  0  0  0  0
  150.0070  152.1330  132.1510 N   0  0  0  0  0  0  0  0  0  0  0  0
  148.8630  152.9770  132.3330 C   0  0  0  0  0  0  0  0  0  0  0  0
  147.7000  152.4900  132.3030 O   0  0  0  0  0  0  0  0  0  0  0  0
  149.0450  154.4400  132.6050 C   0  0  0  0  0  0  0  0  0  0  0  0
  147.8130  155.1760  132.3190 N   0  0  0  0  0  0  0  0  0  0  0  0
  147.6410  156.5740  132.6210 C   0  0  0  0  0  0  0  0  0  0  0  0
  148.7780  157.4210  132.6350 C   0  0  0  0  0  0  0  0  0  0  0  0
  148.6550  158.7870  132.9370 C   0  0  0  0  0  0  0  0  0  0  0  0
  147.3870  159.2830  133.2140 C   0  0  0  0  0  0  0  0  0  0  0  0
  146.9890  160.5540  133.5590 C   0  0  0  0  0  0  0  0  0  0  0  0
  145.6090  160.4770  133.7300 C   0  0  0  0  0  0  0  0  0  0  0  0
  144.7580  161.6470  134.0250 C   0  0  0  0  0  0  0  0  0  0  0  0
  143.3670  161.6080  133.7160 N   0  0  0  0  0  0  0  0  0  0  0  0
  145.2370  162.6700  134.5830 O   0  0  0  0  0  0  0  0  0  0  0  0
  145.1710  159.2050  133.5050 N   0  0  0  0  0  0  0  0  0  0  0  0
  143.8340  158.7010  133.6490 C   0  0  0  0  0  0  0  0  0  0  0  0
  143.3080  158.0450  132.7090 O   0  0  0  0  0  0  0  0  0  0  0  0
  143.1360  158.9230  134.8460 O   0  0  0  0  0  0  0  0  0  0  0  0
  141.8050  159.3470  134.9350 C   0  0  0  0  0  0  0  0  0  0  0  0
  141.1010  159.5040  133.9000 O   0  0  0  0  0  0  0  0  0  0  0  0
  141.2650  159.5980  136.1990 O   0  0  0  0  0  0  0  0  0  0  0  0
  141.1520  158.5920  137.1980 C   0  0  0  0  0  0  0  0  0  0  0  0
  146.2720  158.4870  133.1880 C   0  0  0  0  0  0  0  0  0  0  0  0
  146.3650  157.1180  132.9100 C   0  0  0  0  0  0  0  0  0  0  0  0
  149.8242  150.1675  132.8626 H   0  0  0  0  0  0  0  0  0  0  0  0
  148.9544  150.5143  131.3296 H   0  0  0  0  0  0  0  0  0  0  0  0
  150.7430  150.3479  131.3296 H   0  0  0  0  0  0  0  0  0  0  0  0
  150.9640  152.5500  132.2040 H   0  0  0  0  0  0  0  0  0  0  0  0
  149.3122  154.5802  133.6628 H   0  0  0  0  0  0  0  0  0  0  0  0
  149.8454  154.8238  131.9553 H   0  0  0  0  0  0  0  0  0  0  0  0
  147.0140  154.6680  131.8730 H   0  0  0  0  0  0  0  0  0  0  0  0
  149.7693  157.0027  132.4063 H   0  0  0  0  0  0  0  0  0  0  0  0
  149.5365  159.4448  132.9537 H   0  0  0  0  0  0  0  0  0  0  0  0
  147.6261  161.4431  133.6752 H   0  0  0  0  0  0  0  0  0  0  0  0
  142.8670  160.6980  133.6030 H   0  0  0  0  0  0  0  0  0  0  0  0
  141.2042  159.0565  138.1937 H   0  0  0  0  0  0  0  0  0  0  0  0
  140.1897  158.0709  137.0865 H   0  0  0  0  0  0  0  0  0  0  0  0
  141.9747  157.8704  137.0865 H   0  0  0  0  0  0  0  0  0  0  0  0
  145.4689  156.4800  132.9158 H   0  0  0  0  0  0  0  0  0  0  0  0
  1  2  1  0
  2  3  1  0
  3  4  2  0
  3  5  1  0
  5  6  1  0
  6  7  1  0
  7  8  2  0
  8  9  1  0
  9 10  2  0
 10 11  1  0
 11 12  2  0
 12 13  1  0
 13 14  1  0
 13 15  2  0
 12 16  1  0
 16 17  1  0
 17 18  2  0
 17 19  1  0
 19 20  1  0
 20 21  2  0
 20 22  1  0
 22 23  1  0
 16 24  1  0
 24 25  2  0
 25  7  1  0
 24 10  1  0
  1 26  1  0
  1 27  1  0
  1 28  1  0
  2 29  1  0
  5 30  1  0
  5 31  1  0
  6 32  1  0
  8 33  1  0
  9 34  1  0
 11 35  1  0
 14 36  1  0
 23 37  1  0
 23 38  1  0
 23 39  1  0
 25 40  1  0
M  CHG  1  14  -1
M  END
>  <UniqueID>  (58) 
58

>  <SMILES>  (58) 
CNC(=O)CNc1ccc2cc(C([NH-])=O)n(C(=O)OC(=O)OC)c2c1

>  <Energy>  (58) 
73.21816544198666

>  <Genealogy>  (58) 
CNC(=O)CNc1ccc2cc(C([NH-])=O)n(C(=O)OC(=O)OC)c2c1 (protonated)
CNC(=O)CNc1ccc2cc(C([NH-])=O)n(C(=O)OC(=O)OC)c2c1 (3D coordinates assigned)
CNC(=O)CNc1ccc2cc(C([NH-])=O)n(C(=O)OC(=O)OC)c2c1 (optimized conformer: 73.21816544198666 kcal/mol)

>  <smiles>  (58) 
CNC(=O)CNc1ccc2cc(C(N)=O)n(C(=O)OC(=O)OC)c2c1

>  <score_type>  (58) 
oracle

>  <origin>  (58) 
adg

>  <m_score__min__energy>  (58) 
-7.0199999999999996

>  <m_primary>  (58) 
energy

$$$$
60:0
     RDKit          3D

 47 51  0  0  0  0  0  0  0  0999 V2000
  141.5830  161.2340  133.7300 N   0  0  0  0  0  0  0  0  0  0  0  0
  142.7820  160.4740  133.7590 C   0  0  0  0  0  0  0  0  0  0  0  0
  143.8760  161.0630  133.9630 O   0  0  0  0  0  0  0  0  0  0  0  0
  142.7700  159.0040  133.5660 C   0  0  0  0  0  0  0  0  0  0  0  0
  143.9300  158.2430  133.4060 C   0  0  0  0  0  0  0  0  0  0  0  0
  143.5110  156.9320  133.3710 C   0  0  0  0  0  0  0  0  0  0  0  0
  144.2410  155.7560  133.2490 C   0  0  0  0  0  0  0  0  0  0  0  0
  143.5380  154.5380  133.2600 C   0  0  0  0  0  0  0  0  0  0  0  0
  142.1240  154.5170  133.4010 C   0  0  0  0  0  0  0  0  0  0  0  0
  141.3580  153.2210  133.4360 C   0  0  0  0  0  0  0  0  0  0  0  0
  141.3340  152.6720  134.7070 F   0  0  0  0  0  0  0  0  0  0  0  0
  140.0580  153.4470  133.0250 F   0  0  0  0  0  0  0  0  0  0  0  0
  141.9460  152.3120  132.5740 F   0  0  0  0  0  0  0  0  0  0  0  0
  141.4210  155.7370  133.5270 C   0  0  0  0  0  0  0  0  0  0  0  0
  142.1470  156.9300  133.5060 C   0  0  0  0  0  0  0  0  0  0  0  0
  141.6760  158.1930  133.6180 N   0  0  0  0  0  0  0  0  0  0  0  0
  140.3100  158.5620  133.8430 C   0  0  0  0  0  0  0  0  0  0  0  0
  139.6490  159.0800  132.9070 O   0  0  0  0  0  0  0  0  0  0  0  0
  139.7410  158.4200  135.1510 N   0  0  0  0  0  0  0  0  0  0  0  0
  140.4290  158.0200  136.3460 C   0  0  0  0  0  0  0  0  0  0  0  0
  141.0600  158.9480  137.1870 C   0  0  0  0  0  0  0  0  0  0  0  0
  141.6920  158.4820  138.3370 C   0  0  0  0  0  0  0  0  0  0  0  0
  141.6780  157.1580  138.6300 N   0  0  0  0  0  0  0  0  0  0  0  0
  141.0460  156.2710  137.8200 C   0  0  0  0  0  0  0  0  0  0  0  0
  141.0370  154.8860  138.1570 N   0  0  0  0  0  0  0  0  0  0  0  0
  141.8110  153.6690  137.8110 C   0  0  0  0  0  0  0  0  0  0  0  0
  140.9800  152.7660  138.6460 C   0  0  0  0  0  0  0  0  0  0  0  0
  140.3270  151.5350  138.1000 C   0  0  0  0  0  0  0  0  0  0  0  0
  140.9080  150.7400  139.1200 O   0  0  0  0  0  0  0  0  0  0  0  0
  141.5600  151.8630  139.6890 C   0  0  0  0  0  0  0  0  0  0  0  0
  140.2090  153.9830  138.9950 C   0  0  0  0  0  0  0  0  0  0  0  0
  140.4260  156.7040  136.6900 N   0  0  0  0  0  0  0  0  0  0  0  0
  140.6500  160.7700  133.8200 H   0  0  0  0  0  0  0  0  0  0  0  0
  144.9625  158.6135  133.3249 H   0  0  0  0  0  0  0  0  0  0  0  0
  145.3360  155.7771  133.1469 H   0  0  0  0  0  0  0  0  0  0  0  0
  144.0886  153.5912  133.1583 H   0  0  0  0  0  0  0  0  0  0  0  0
  140.3268  155.7465  133.6391 H   0  0  0  0  0  0  0  0  0  0  0  0
  141.0558  160.0207  136.9435 H   0  0  0  0  0  0  0  0  0  0  0  0
  142.2028  159.1882  139.0081 H   0  0  0  0  0  0  0  0  0  0  0  0
  141.7727  153.4231  136.7395 H   0  0  0  0  0  0  0  0  0  0  0  0
  142.8972  153.6801  137.9844 H   0  0  0  0  0  0  0  0  0  0  0  0
  139.2278  151.5639  138.1308 H   0  0  0  0  0  0  0  0  0  0  0  0
  140.4723  151.2616  137.0445 H   0  0  0  0  0  0  0  0  0  0  0  0
  141.2310  152.0968  140.7123 H   0  0  0  0  0  0  0  0  0  0  0  0
  142.6481  151.8404  139.8485 H   0  0  0  0  0  0  0  0  0  0  0  0
  139.1588  153.9362  138.6713 H   0  0  0  0  0  0  0  0  0  0  0  0
  140.0891  154.2314  140.0599 H   0  0  0  0  0  0  0  0  0  0  0  0
  1  2  1  0
  2  3  2  0
  2  4  1  0
  4  5  2  0
  5  6  1  0
  6  7  2  0
  7  8  1  0
  8  9  2  0
  9 10  1  0
 10 11  1  0
 10 12  1  0
 10 13  1  0
  9 14  1  0
 14 15  2  0
 15 16  1  0
 16 17  1  0
 17 18  2  0
 17 19  1  0
 19 20  1  0
 20 21  2  0
 21 22  1  0
 22 23  2  0
 23 24  1  0
 24 25  1  0
 25 26  1  0
 26 27  1  0
 27 28  1  0
 28 29  1  0
 29 30  1  0
 27 31  1  0
 24 32  2  0
 16  4  1  0
 32 20  1  0
 15  6  1  0
 31 25  1  0
 30 27  1  0
  1 33  1  0
  5 34  1  0
  7 35  1  0
  8 36  1  0
 14 37  1  0
 21 38  1  0
 22 39  1  0
 26 40  1  0
 26 41  1  0
 28 42  1  0
 28 43  1  0
 30 44  1  0
 30 45  1  0
 31 46  1  0
 31 47  1  0
M  CHG  2   1  -1  19  -1
M  END
>  <UniqueID>  (59) 
59

>  <SMILES>  (59) 
[NH-]C(=O)c1cc2ccc(C(F)(F)F)cc2n1C(=O)[N-]c1ccnc(N2CC3(COC3)C2)n1

>  <Energy>  (59) 
221.43524585066464

>  <Genealogy>  (59) 
[NH-]C(=O)c1cc2ccc(C(F)(F)F)cc2n1C(=O)[N-]c1ccnc(N2CC3(COC3)C2)n1 (protonated)
[NH-]C(=O)c1cc2ccc(C(F)(F)F)cc2n1C(=O)[N-]c1ccnc(N2CC3(COC3)C2)n1 (3D coordinates assigned)
[NH-]C(=O)c1cc2ccc(C(F)(F)F)cc2n1C(=O)[N-]c1ccnc(N2CC3(COC3)C2)n1 (nonaromatic ring conformer: 221.43524585066464 kcal/mol)

>  <smiles>  (59) 
NC(=O)c1cc2ccc(C(F)(F)F)cc2n1C(=O)Nc1ccnc(N2CC3(COC3)C2)n1

>  <score_type>  (59) 
oracle

>  <origin>  (59) 
adg

>  <m_score__min__energy>  (59) 
-9.0299999999999994

>  <m_primary>  (59) 
energy

$$$$
61:0
     RDKit          3D

 39 40  0  0  0  0  0  0  0  0999 V2000
  148.8480  159.0100  134.4470 C   0  0  0  0  0  0  0  0  0  0  0  0
  147.7250  158.1580  133.9370 C   0  0  0  0  0  0  0  0  0  0  0  0
  146.4490  158.7300  133.7060 C   0  0  0  0  0  0  0  0  0  0  0  0
  145.3730  157.9310  133.2800 C   0  0  0  0  0  0  0  0  0  0  0  0
  145.6050  156.5720  133.0930 C   0  0  0  0  0  0  0  0  0  0  0  0
  144.7330  155.5650  132.7420 C   0  0  0  0  0  0  0  0  0  0  0  0
  145.4960  154.4000  132.7480 C   0  0  0  0  0  0  0  0  0  0  0  0
  144.9530  153.0650  132.4210 C   0  0  0  0  0  0  0  0  0  0  0  0
  145.7740  152.0480  131.8460 N   0  0  0  0  0  0  0  0  0  0  0  0
  143.7300  152.8310  132.6150 O   0  0  0  0  0  0  0  0  0  0  0  0
  146.7860  154.6720  133.0900 N   0  0  0  0  0  0  0  0  0  0  0  0
  147.8370  153.7260  133.3420 C   0  0  0  0  0  0  0  0  0  0  0  0
  147.8080  153.0290  134.3910 O   0  0  0  0  0  0  0  0  0  0  0  0
  148.9300  153.5340  132.3790 C   0  0  0  0  0  0  0  0  0  0  0  0
  149.8330  154.4090  132.2670 O   0  0  0  0  0  0  0  0  0  0  0  0
  148.9480  152.3890  131.5790 O   0  0  0  0  0  0  0  0  0  0  0  0
  150.0080  151.4370  131.6220 C   0  0  0  0  0  0  0  0  0  0  0  0
  149.7310  150.3820  132.7040 C   0  0  1  0  0  0  0  0  0  0  0  0
  149.6200  151.0010  133.9590 O   0  0  0  0  0  0  0  0  0  0  0  0
  148.4420  149.5970  132.4170 C   0  0  0  0  0  0  0  0  0  0  0  0
  147.3110  150.4120  132.5750 O   0  0  0  0  0  0  0  0  0  0  0  0
  146.8360  156.0060  133.3050 C   0  0  0  0  0  0  0  0  0  0  0  0
  147.9170  156.7710  133.7570 C   0  0  0  0  0  0  0  0  0  0  0  0
  148.8416  159.0051  135.5470 H   0  0  0  0  0  0  0  0  0  0  0  0
  149.8061  158.6095  134.0841 H   0  0  0  0  0  0  0  0  0  0  0  0
  148.7204  160.0406  134.0841 H   0  0  0  0  0  0  0  0  0  0  0  0
  146.2990  159.8086  133.8613 H   0  0  0  0  0  0  0  0  0  0  0  0
  144.3791  158.3668  133.1003 H   0  0  0  0  0  0  0  0  0  0  0  0
  143.6626  155.6607  132.5071 H   0  0  0  0  0  0  0  0  0  0  0  0
  145.3840  151.0950  131.6780 H   0  0  0  0  0  0  0  0  0  0  0  0
  146.7320  152.2610  131.4910 H   0  0  0  0  0  0  0  0  0  0  0  0
  150.0906  150.9409  130.6437 H   0  0  0  0  0  0  0  0  0  0  0  0
  150.9476  151.9570  131.8603 H   0  0  0  0  0  0  0  0  0  0  0  0
  150.5750  149.6766  132.7006 H   0  0  0  0  0  0  0  0  0  0  0  0
  148.6500  151.0600  134.1650 H   0  0  0  0  0  0  0  0  0  0  0  0
  148.4726  149.2206  131.3839 H   0  0  0  0  0  0  0  0  0  0  0  0
  148.3744  148.7619  133.1297 H   0  0  0  0  0  0  0  0  0  0  0  0
  147.6220  151.2470  133.0130 H   0  0  0  0  0  0  0  0  0  0  0  0
  148.8907  156.3040  133.9665 H   0  0  0  0  0  0  0  0  0  0  0  0
  1  2  1  0
  2  3  2  0
  3  4  1  0
  4  5  2  0
  5  6  1  0
  6  7  2  0
  7  8  1  0
  8  9  1  0
  8 10  2  0
  7 11  1  0
 11 12  1  0
 12 13  2  0
 12 14  1  0
 14 15  2  0
 14 16  1  0
 16 17  1  0
 17 18  1  0
 18 19  1  0
 18 20  1  0
 20 21  1  0
 11 22  1  0
 22 23  2  0
 23  2  1  0
 22  5  1  0
  1 24  1  0
  1 25  1  0
  1 26  1  0
  3 27  1  0
  4 28  1  0
  6 29  1  0
  9 30  1  0
  9 31  1  0
 17 32  1  0
 17 33  1  0
 18 34  1  1
 19 35  1  0
 20 36  1  0
 20 37  1  0
 21 38  1  0
 23 39  1  0
M  END
>  <UniqueID>  (60) 
60

>  <SMILES>  (60) 
Cc1ccc2cc(C(N)=O)n(C(=O)C(=O)OC[C@@H](O)CO)c2c1

>  <Energy>  (60) 
72.64549373783284

>  <Genealogy>  (60) 
Cc1ccc2cc(C(N)=O)n(C(=O)C(=O)OC[C@@H](O)CO)c2c1 (chirality)
Cc1ccc2cc(C(N)=O)n(C(=O)C(=O)OC[C@@H](O)CO)c2c1 (3D coordinates assigned)
Cc1ccc2cc(C(N)=O)n(C(=O)C(=O)OC[C@@H](O)CO)c2c1 (optimized conformer: 72.64549373783284 kcal/mol)

>  <smiles>  (60) 
Cc1ccc2cc(C(N)=O)n(C(=O)C(=O)OCC(O)CO)c2c1

>  <score_type>  (60) 
oracle

>  <origin>  (60) 
adg

>  <m_score__min__energy>  (60) 
-5.8300000000000001

>  <m_primary>  (60) 
energy

$$$$
62:0
     RDKit          3D

 38 39  0  0  0  0  0  0  0  0999 V2000
  148.3510  160.4580  131.3660 C   0  0  0  0  0  0  0  0  0  0  0  0
  148.7900  159.5040  132.1920 C   0  0  0  0  0  0  0  0  0  0  0  0
  148.4740  159.5340  133.6580 C   0  0  0  0  0  0  0  0  0  0  0  0
  147.7820  158.3450  134.0230 O   0  0  0  0  0  0  0  0  0  0  0  0
  146.9840  157.6280  133.1250 C   0  0  0  0  0  0  0  0  0  0  0  0
  147.5180  156.8950  132.2490 O   0  0  0  0  0  0  0  0  0  0  0  0
  145.5520  157.7270  133.2100 N   0  0  0  0  0  0  0  0  0  0  0  0
  144.6550  156.7020  133.2060 C   0  0  0  0  0  0  0  0  0  0  0  0
  144.9610  155.2820  132.9380 C   0  0  0  0  0  0  0  0  0  0  0  0
  145.8110  154.8990  131.8550 N   0  0  0  0  0  0  0  0  0  0  0  0
  144.4170  154.3890  133.6400 O   0  0  0  0  0  0  0  0  0  0  0  0
  143.3650  157.1750  133.4270 C   0  0  0  0  0  0  0  0  0  0  0  0
  143.4960  158.5380  133.5490 C   0  0  0  0  0  0  0  0  0  0  0  0
  142.5290  159.5100  133.7770 C   0  0  0  0  0  0  0  0  0  0  0  0
  142.9440  160.8470  133.8790 C   0  0  0  0  0  0  0  0  0  0  0  0
  144.3200  161.2000  133.7630 C   0  0  0  0  0  0  0  0  0  0  0  0
  144.7400  162.5870  133.8700 N   0  0  0  0  0  0  0  0  0  0  0  0
  146.0270  162.9320  134.4890 C   0  0  0  0  0  0  0  0  0  0  0  0
  143.8870  163.6690  133.3630 C   0  0  0  0  0  0  0  0  0  0  0  0
  145.2710  160.1700  133.5400 C   0  0  0  0  0  0  0  0  0  0  0  0
  144.8230  158.8490  133.4170 C   0  0  0  0  0  0  0  0  0  0  0  0
  148.5963  160.4135  130.2946 H   0  0  0  0  0  0  0  0  0  0  0  0
  147.7443  161.2879  131.7573 H   0  0  0  0  0  0  0  0  0  0  0  0
  149.3958  158.6793  131.7885 H   0  0  0  0  0  0  0  0  0  0  0  0
  149.4094  159.6039  134.2325 H   0  0  0  0  0  0  0  0  0  0  0  0
  147.8407  160.4064  133.8768 H   0  0  0  0  0  0  0  0  0  0  0  0
  146.0290  153.8920  131.6900 H   0  0  0  0  0  0  0  0  0  0  0  0
  146.1550  155.6030  131.1660 H   0  0  0  0  0  0  0  0  0  0  0  0
  142.4390  156.5847  133.4905 H   0  0  0  0  0  0  0  0  0  0  0  0
  141.4674  159.2389  133.8748 H   0  0  0  0  0  0  0  0  0  0  0  0
  142.1956  161.6346  134.0511 H   0  0  0  0  0  0  0  0  0  0  0  0
  145.9261  162.9050  135.5840 H   0  0  0  0  0  0  0  0  0  0  0  0
  146.7918  162.2072  134.1732 H   0  0  0  0  0  0  0  0  0  0  0  0
  146.3267  163.9422  134.1732 H   0  0  0  0  0  0  0  0  0  0  0  0
  143.4522  164.2205  134.2097 H   0  0  0  0  0  0  0  0  0  0  0  0
  144.4901  164.3547  132.7497 H   0  0  0  0  0  0  0  0  0  0  0  0
  143.0795  163.2426  132.7497 H   0  0  0  0  0  0  0  0  0  0  0  0
  146.3428  160.4058  133.4650 H   0  0  0  0  0  0  0  0  0  0  0  0
  1  2  2  0
  2  3  1  0
  3  4  1  0
  4  5  1  0
  5  6  2  0
  5  7  1  0
  7  8  1  0
  8  9  1  0
  9 10  1  0
  9 11  2  0
  8 12  2  0
 12 13  1  0
 13 14  2  0
 14 15  1  0
 15 16  2  0
 16 17  1  0
 17 18  1  0
 17 19  1  0
 16 20  1  0
 20 21  2  0
 21  7  1  0
 21 13  1  0
  1 22  1  0
  1 23  1  0
  2 24  1  0
  3 25  1  0
  3 26  1  0
 10 27  1  0
 10 28  1  0
 12 29  1  0
 14 30  1  0
 15 31  1  0
 18 32  1  0
 18 33  1  0
 18 34  1  0
 19 35  1  0
 19 36  1  0
 19 37  1  0
 20 38  1  0
M  END
>  <UniqueID>  (61) 
61

>  <SMILES>  (61) 
C=CCOC(=O)n1c(C(N)=O)cc2ccc(N(C)C)cc21

>  <Energy>  (61) 
73.42540132204371

>  <Genealogy>  (61) 
C=CCOC(=O)n1c(C(N)=O)cc2ccc(N(C)C)cc21 (3D coordinates assigned)
C=CCOC(=O)n1c(C(N)=O)cc2ccc(N(C)C)cc21 (optimized conformer: 73.42540132204371 kcal/mol)

>  <smiles>  (61) 
C=CCOC(=O)n1c(C(N)=O)cc2ccc(N(C)C)cc21

>  <score_type>  (61) 
oracle

>  <origin>  (61) 
adg

>  <m_score__min__energy>  (61) 
-6.7000000000000002

>  <m_primary>  (61) 
energy

$$$$
63:0
     RDKit          3D

 41 42  0  0  0  0  0  0  0  0999 V2000
  149.5870  152.0360  131.8450 C   0  0  0  0  0  0  0  0  0  0  0  0
  149.4430  152.8750  132.9840 O   0  0  0  0  0  0  0  0  0  0  0  0
  148.8650  154.1440  132.9170 C   0  0  0  0  0  0  0  0  0  0  0  0
  149.4910  155.1060  132.3900 O   0  0  0  0  0  0  0  0  0  0  0  0
  147.5850  154.3350  133.4420 O   0  0  0  0  0  0  0  0  0  0  0  0
  146.4200  154.4350  132.6290 C   0  0  0  0  0  0  0  0  0  0  0  0
  145.9270  155.7700  132.6640 O   0  0  0  0  0  0  0  0  0  0  0  0
  145.7500  156.4840  133.8530 C   0  0  0  0  0  0  0  0  0  0  0  0
  145.7080  155.8740  134.9570 O   0  0  0  0  0  0  0  0  0  0  0  0
  145.6350  157.9170  133.8160 N   0  0  0  0  0  0  0  0  0  0  0  0
  146.6410  158.8300  133.7040 C   0  0  0  0  0  0  0  0  0  0  0  0
  148.0900  158.5270  133.7390 C   0  0  0  0  0  0  0  0  0  0  0  0
  148.5720  157.2320  133.3740 N   0  0  0  0  0  0  0  0  0  0  0  0
  148.9160  159.4210  134.0600 O   0  0  0  0  0  0  0  0  0  0  0  0
  146.1220  160.1220  133.6500 C   0  0  0  0  0  0  0  0  0  0  0  0
  144.7580  159.9710  133.7390 C   0  0  0  0  0  0  0  0  0  0  0  0
  143.7520  160.9290  133.7330 C   0  0  0  0  0  0  0  0  0  0  0  0
  142.4220  160.4910  133.8210 C   0  0  0  0  0  0  0  0  0  0  0  0
  142.1080  159.1050  133.9060 C   0  0  0  0  0  0  0  0  0  0  0  0
  140.7290  158.6610  133.9910 N   0  0  0  0  0  0  0  0  0  0  0  0
  139.8800  158.6270  132.7940 C   0  0  0  0  0  0  0  0  0  0  0  0
  140.1580  158.2410  135.2780 C   0  0  0  0  0  0  0  0  0  0  0  0
  143.1700  158.1640  133.9040 C   0  0  0  0  0  0  0  0  0  0  0  0
  144.4880  158.6320  133.8380 C   0  0  0  0  0  0  0  0  0  0  0  0
  149.7647  151.0009  132.1722 H   0  0  0  0  0  0  0  0  0  0  0  0
  148.6687  152.0771  131.2409 H   0  0  0  0  0  0  0  0  0  0  0  0
  150.4391  152.3810  131.2409 H   0  0  0  0  0  0  0  0  0  0  0  0
  146.6722  154.1648  131.5929 H   0  0  0  0  0  0  0  0  0  0  0  0
  145.6482  153.7502  133.0104 H   0  0  0  0  0  0  0  0  0  0  0  0
  149.5980  157.0390  133.3640 H   0  0  0  0  0  0  0  0  0  0  0  0
  147.9160  156.4510  133.1520 H   0  0  0  0  0  0  0  0  0  0  0  0
  146.6840  161.0629  133.5561 H   0  0  0  0  0  0  0  0  0  0  0  0
  143.9913  162.0003  133.6613 H   0  0  0  0  0  0  0  0  0  0  0  0
  141.6081  161.2310  133.8244 H   0  0  0  0  0  0  0  0  0  0  0  0
  138.8229  158.5847  133.0953 H   0  0  0  0  0  0  0  0  0  0  0  0
  140.0545  159.5329  132.1949 H   0  0  0  0  0  0  0  0  0  0  0  0
  140.1264  157.7380  132.1949 H   0  0  0  0  0  0  0  0  0  0  0  0
  140.7473  158.6744  136.0995 H   0  0  0  0  0  0  0  0  0  0  0  0
  139.1174  158.5906  135.3490 H   0  0  0  0  0  0  0  0  0  0  0  0
  140.1818  157.1435  135.3490 H   0  0  0  0  0  0  0  0  0  0  0  0
  142.9614  157.0851  133.9535 H   0  0  0  0  0  0  0  0  0  0  0  0
  1  2  1  0
  2  3  1  0
  3  4  2  0
  3  5  1  0
  5  6  1  0
  6  7  1  0
  7  8  1  0
  8  9  2  0
  8 10  1  0
 10 11  1  0
 11 12  1  0
 12 13  1  0
 12 14  2  0
 11 15  2  0
 15 16  1  0
 16 17  2  0
 17 18  1  0
 18 19  2  0
 19 20  1  0
 20 21  1  0
 20 22  1  0
 19 23  1  0
 23 24  2  0
 24 10  1  0
 24 16  1  0
  1 25  1  0
  1 26  1  0
  1 27  1  0
  6 28  1  0
  6 29  1  0
 13 30  1  0
 13 31  1  0
 15 32  1  0
 17 33  1  0
 18 34  1  0
 21 35  1  0
 21 36  1  0
 21 37  1  0
 22 38  1  0
 22 39  1  0
 22 40  1  0
 23 41  1  0
M  END
>  <UniqueID>  (62) 
62

>  <SMILES>  (62) 
COC(=O)OCOC(=O)n1c(C(N)=O)cc2ccc(N(C)C)cc21

>  <Energy>  (62) 
74.92780287597442

>  <Genealogy>  (62) 
COC(=O)OCOC(=O)n1c(C(N)=O)cc2ccc(N(C)C)cc21 (3D coordinates assigned)
COC(=O)OCOC(=O)n1c(C(N)=O)cc2ccc(N(C)C)cc21 (optimized conformer: 74.92780287597442 kcal/mol)

>  <smiles>  (62) 
COC(=O)OCOC(=O)n1c(C(N)=O)cc2ccc(N(C)C)cc21

>  <score_type>  (62) 
oracle

>  <origin>  (62) 
adg

>  <m_score__min__energy>  (62) 
-5.6900000000000004

>  <m_primary>  (62) 
energy

$$$$
64:0
     RDKit          3D

 31 32  0  0  0  0  0  0  0  0999 V2000
  148.2190  157.3450  134.3110 N   0  0  0  0  0  0  0  0  0  0  0  0
  147.7600  158.5780  133.7540 C   0  0  0  0  0  0  0  0  0  0  0  0
  148.6000  159.4100  133.3200 O   0  0  0  0  0  0  0  0  0  0  0  0
  146.3240  158.9210  133.7350 C   0  0  0  0  0  0  0  0  0  0  0  0
  145.8510  160.2300  133.6940 C   0  0  0  0  0  0  0  0  0  0  0  0
  144.4800  160.1210  133.7470 C   0  0  0  0  0  0  0  0  0  0  0  0
  143.5040  161.1140  133.7270 C   0  0  0  0  0  0  0  0  0  0  0  0
  142.1570  160.7140  133.7560 C   0  0  0  0  0  0  0  0  0  0  0  0
  141.8140  159.3390  133.7790 C   0  0  0  0  0  0  0  0  0  0  0  0
  140.3730  158.9250  133.8290 C   0  0  0  0  0  0  0  0  0  0  0  0
  139.6650  159.0140  132.1980 Cl  0  0  0  0  0  0  0  0  0  0  0  0
  142.8310  158.3600  133.8080 C   0  0  0  0  0  0  0  0  0  0  0  0
  144.1650  158.7870  133.8050 C   0  0  0  0  0  0  0  0  0  0  0  0
  145.2900  158.0360  133.7980 N   0  0  0  0  0  0  0  0  0  0  0  0
  145.3650  156.6020  133.7430 C   0  0  0  0  0  0  0  0  0  0  0  0
  145.2430  156.0070  132.6370 O   0  0  0  0  0  0  0  0  0  0  0  0
  145.5880  155.8490  134.9390 N   0  0  0  0  0  0  0  0  0  0  0  0
  145.9450  154.4390  134.9300 C   0  0  0  0  0  0  0  0  0  0  0  0
  147.0070  154.1920  135.9470 C   0  0  0  0  0  0  0  0  0  0  0  0
  147.9690  154.9950  136.0680 O   0  0  0  0  0  0  0  0  0  0  0  0
  146.9660  153.0440  136.7300 O   0  0  0  0  0  0  0  0  0  0  0  0
  149.2340  157.1010  134.2770 H   0  0  0  0  0  0  0  0  0  0  0  0
  147.5720  156.7150  134.8360 H   0  0  0  0  0  0  0  0  0  0  0  0
  146.4457  161.1534  133.6324 H   0  0  0  0  0  0  0  0  0  0  0  0
  143.7787  162.1785  133.6897 H   0  0  0  0  0  0  0  0  0  0  0  0
  141.3622  161.4745  133.7609 H   0  0  0  0  0  0  0  0  0  0  0  0
  140.3021  157.8927  134.2024 H   0  0  0  0  0  0  0  0  0  0  0  0
  139.8236  159.6002  134.5015 H   0  0  0  0  0  0  0  0  0  0  0  0
  142.5819  157.2888  133.8323 H   0  0  0  0  0  0  0  0  0  0  0  0
  145.0583  153.8341  135.1706 H   0  0  0  0  0  0  0  0  0  0  0  0
  146.3178  154.1601  133.9334 H   0  0  0  0  0  0  0  0  0  0  0  0
  1  2  1  0
  2  3  2  0
  2  4  1  0
  4  5  2  0
  5  6  1  0
  6  7  2  0
  7  8  1  0
  8  9  2  0
  9 10  1  0
 10 11  1  0
  9 12  1  0
 12 13  2  0
 13 14  1  0
 14 15  1  0
 15 16  2  0
 15 17  1  0
 17 18  1  0
 18 19  1  0
 19 20  2  0
 19 21  1  0
 14  4  1  0
 13  6  1  0
  1 22  1  0
  1 23  1  0
  5 24  1  0
  7 25  1  0
  8 26  1  0
 10 27  1  0
 10 28  1  0
 12 29  1  0
 18 30  1  0
 18 31  1  0
M  CHG  2  17  -1  21  -1
M  END
>  <UniqueID>  (63) 
63

>  <SMILES>  (63) 
NC(=O)c1cc2ccc(CCl)cc2n1C(=O)[N-]CC(=O)[O-]

>  <Energy>  (63) 
66.44382157727864

>  <Genealogy>  (63) 
NC(=O)c1cc2ccc(CCl)cc2n1C(=O)[N-]CC(=O)[O-] (protonated)
NC(=O)c1cc2ccc(CCl)cc2n1C(=O)[N-]CC(=O)[O-] (3D coordinates assigned)
NC(=O)c1cc2ccc(CCl)cc2n1C(=O)[N-]CC(=O)[O-] (optimized conformer: 66.44382157727864 kcal/mol)

>  <smiles>  (63) 
NC(=O)c1cc2ccc(CCl)cc2n1C(=O)NCC(=O)O

>  <score_type>  (63) 
oracle

>  <origin>  (63) 
adg

>  <m_score__min__energy>  (63) 
-6.6200000000000001

>  <m_primary>  (63) 
energy

$$$$
65:0
     RDKit          3D

 45 47  0  0  0  0  0  0  0  0999 V2000
  149.2850  153.2180  132.5970 C   0  0  0  0  0  0  0  0  0  0  0  0
  147.9670  153.8650  132.4970 N   0  0  0  0  0  0  0  0  0  0  0  0
  147.0490  153.3540  133.5250 C   0  0  0  0  0  0  0  0  0  0  0  0
  148.1070  155.2960  132.6060 C   0  0  0  0  0  0  0  0  0  0  0  0
  149.2090  155.8020  132.9610 O   0  0  0  0  0  0  0  0  0  0  0  0
  147.0220  156.1140  132.2640 O   0  0  0  0  0  0  0  0  0  0  0  0
  146.1240  156.6860  133.1760 C   0  0  0  0  0  0  0  0  0  0  0  0
  145.4650  155.9600  133.9710 O   0  0  0  0  0  0  0  0  0  0  0  0
  145.9640  158.1140  133.2120 N   0  0  0  0  0  0  0  0  0  0  0  0
  146.9480  159.0570  133.2000 C   0  0  0  0  0  0  0  0  0  0  0  0
  148.3810  158.8100  132.9430 C   0  0  0  0  0  0  0  0  0  0  0  0
  148.8190  158.2750  131.6970 N   0  0  0  0  0  0  0  0  0  0  0  0
  149.2340  159.1240  133.8160 O   0  0  0  0  0  0  0  0  0  0  0  0
  146.4100  160.3280  133.3840 C   0  0  0  0  0  0  0  0  0  0  0  0
  145.0550  160.1360  133.5050 C   0  0  0  0  0  0  0  0  0  0  0  0
  144.0380  161.0570  133.7300 C   0  0  0  0  0  0  0  0  0  0  0  0
  142.7270  160.5750  133.8630 C   0  0  0  0  0  0  0  0  0  0  0  0
  142.4460  159.1830  133.7810 C   0  0  0  0  0  0  0  0  0  0  0  0
  141.0940  158.6930  133.9450 N   0  0  0  0  0  0  0  0  0  0  0  0
  140.6100  158.0300  135.1490 C   0  0  0  0  0  0  0  0  0  0  0  0
  139.1140  157.8330  134.9470 C   0  0  0  0  0  0  0  0  0  0  0  0
  138.8660  158.0150  133.4550 C   0  0  0  0  0  0  0  0  0  0  0  0
  140.0580  158.8030  132.9270 C   0  0  0  0  0  0  0  0  0  0  0  0
  143.5160  158.2800  133.5510 C   0  0  0  0  0  0  0  0  0  0  0  0
  144.8100  158.7920  133.4010 C   0  0  0  0  0  0  0  0  0  0  0  0
  149.5501  153.0879  133.6566 H   0  0  0  0  0  0  0  0  0  0  0  0
  149.2492  152.2350  132.1046 H   0  0  0  0  0  0  0  0  0  0  0  0
  150.0408  153.8475  132.1046 H   0  0  0  0  0  0  0  0  0  0  0  0
  147.5590  153.6380  131.5570 H   0  0  0  0  0  0  0  0  0  0  0  0
  147.4537  153.5793  134.5227 H   0  0  0  0  0  0  0  0  0  0  0  0
  146.0663  153.8349  133.4108 H   0  0  0  0  0  0  0  0  0  0  0  0
  146.9400  152.2654  133.4108 H   0  0  0  0  0  0  0  0  0  0  0  0
  148.6770  157.2650  131.4670 H   0  0  0  0  0  0  0  0  0  0  0  0
  146.9543  161.2831  133.4240 H   0  0  0  0  0  0  0  0  0  0  0  0
  144.2550  162.1330  133.8017 H   0  0  0  0  0  0  0  0  0  0  0  0
  141.9038  161.2845  134.0333 H   0  0  0  0  0  0  0  0  0  0  0  0
  141.1096  157.0584  135.2774 H   0  0  0  0  0  0  0  0  0  0  0  0
  140.8199  158.6261  136.0493 H   0  0  0  0  0  0  0  0  0  0  0  0
  138.8149  156.8230  135.2641 H   0  0  0  0  0  0  0  0  0  0  0  0
  138.5285  158.5480  135.5437 H   0  0  0  0  0  0  0  0  0  0  0  0
  138.8023  157.0370  132.9556 H   0  0  0  0  0  0  0  0  0  0  0  0
  137.9183  158.5397  133.2641 H   0  0  0  0  0  0  0  0  0  0  0  0
  140.4089  158.3745  131.9766 H   0  0  0  0  0  0  0  0  0  0  0  0
  139.7932  159.8529  132.7330 H   0  0  0  0  0  0  0  0  0  0  0  0
  143.3319  157.1971  133.4916 H   0  0  0  0  0  0  0  0  0  0  0  0
  1  2  1  0
  2  3  1  0
  2  4  1  0
  4  5  2  0
  4  6  1  0
  6  7  1  0
  7  8  2  0
  7  9  1  0
  9 10  1  0
 10 11  1  0
 11 12  1  0
 11 13  2  0
 10 14  2  0
 14 15  1  0
 15 16  2  0
 16 17  1  0
 17 18  2  0
 18 19  1  0
 19 20  1  0
 20 21  1  0
 21 22  1  0
 22 23  1  0
 18 24  1  0
 24 25  2  0
 25  9  1  0
 25 15  1  0
 23 19  1  0
  1 26  1  0
  1 27  1  0
  1 28  1  0
  2 29  1  0
  3 30  1  0
  3 31  1  0
  3 32  1  0
 12 33  1  0
 14 34  1  0
 16 35  1  0
 17 36  1  0
 20 37  1  0
 20 38  1  0
 21 39  1  0
 21 40  1  0
 22 41  1  0
 22 42  1  0
 23 43  1  0
 23 44  1  0
 24 45  1  0
M  CHG  2   2   1  12  -1
M  END
>  <UniqueID>  (64) 
64

>  <SMILES>  (64) 
C[NH+](C)C(=O)OC(=O)n1c(C([NH-])=O)cc2ccc(N3CCCC3)cc21

>  <Energy>  (64) 
87.72341190016724

>  <Genealogy>  (64) 
C[NH+](C)C(=O)OC(=O)n1c(C([NH-])=O)cc2ccc(N3CCCC3)cc21 (protonated)
C[NH+](C)C(=O)OC(=O)n1c(C([NH-])=O)cc2ccc(N3CCCC3)cc21 (3D coordinates assigned)
C[NH+](C)C(=O)OC(=O)n1c(C([NH-])=O)cc2ccc(N3CCCC3)cc21 (nonaromatic ring conformer: 87.72341190016724 kcal/mol)

>  <smiles>  (64) 
CN(C)C(=O)OC(=O)n1c(C(N)=O)cc2ccc(N3CCCC3)cc21

>  <score_type>  (64) 
oracle

>  <origin>  (64) 
adg

>  <m_score__min__energy>  (64) 
-7.1900000000000004

>  <m_primary>  (64) 
energy

$$$$
66:0
     RDKit          3D

 43 44  0  0  0  0  0  0  0  0999 V2000
  146.7630  151.8890  132.2300 C   0  0  0  0  0  0  0  0  0  0  0  0
  146.2720  152.8930  133.2020 N   0  0  2  0  0  0  0  0  0  0  0  0
  144.9170  153.2890  132.8420 C   0  0  0  0  0  0  0  0  0  0  0  0
  144.5820  153.3660  131.6270 O   0  0  0  0  0  0  0  0  0  0  0  0
  143.8980  153.5840  133.8760 C   0  0  0  0  0  0  0  0  0  0  0  0
  144.2240  153.6210  135.0930 O   0  0  0  0  0  0  0  0  0  0  0  0
  142.5270  153.8090  133.5100 N   0  0  0  0  0  0  0  0  0  0  0  0
  141.5770  152.8700  133.2480 C   0  0  0  0  0  0  0  0  0  0  0  0
  141.8020  151.4110  133.1820 C   0  0  0  0  0  0  0  0  0  0  0  0
  142.9270  150.8970  132.4720 N   0  0  0  0  0  0  0  0  0  0  0  0
  141.0220  150.6110  133.7630 O   0  0  0  0  0  0  0  0  0  0  0  0
  140.3480  153.4760  132.9940 C   0  0  0  0  0  0  0  0  0  0  0  0
  140.5770  154.8290  133.1140 C   0  0  0  0  0  0  0  0  0  0  0  0
  139.6990  155.9000  132.9920 C   0  0  0  0  0  0  0  0  0  0  0  0
  140.2040  157.1950  133.2040 C   0  0  0  0  0  0  0  0  0  0  0  0
  141.5730  157.3960  133.5210 C   0  0  0  0  0  0  0  0  0  0  0  0
  142.0920  158.7830  133.8030 C   0  0  0  0  0  0  0  0  0  0  0  0
  141.3330  159.7040  133.1030 F   0  0  0  0  0  0  0  0  0  0  0  0
  142.0130  159.0690  135.1550 F   0  0  0  0  0  0  0  0  0  0  0  0
  143.4140  158.8980  133.4120 F   0  0  0  0  0  0  0  0  0  0  0  0
  142.4270  156.2770  133.6610 C   0  0  0  0  0  0  0  0  0  0  0  0
  141.8990  155.0030  133.4270 C   0  0  0  0  0  0  0  0  0  0  0  0
  147.2010  154.0630  133.3930 C   0  0  0  0  0  0  0  0  0  0  0  0
  148.6090  153.8160  132.7790 C   0  0  0  0  0  0  0  0  0  0  0  0
  146.6160  155.3310  132.7210 C   0  0  0  0  0  0  0  0  0  0  0  0
  147.3300  154.3860  134.8770 C   0  0  0  0  0  0  0  0  0  0  0  0
  147.7360  155.5130  135.2700 O   0  0  0  0  0  0  0  0  0  0  0  0
  147.0320  153.4130  135.8250 O   0  0  0  0  0  0  0  0  0  0  0  0
  147.1835  151.0291  132.7719 H   0  0  0  0  0  0  0  0  0  0  0  0
  145.9282  151.5516  131.5981 H   0  0  0  0  0  0  0  0  0  0  0  0
  147.5419  152.3407  131.5981 H   0  0  0  0  0  0  0  0  0  0  0  0
  146.2240  152.3800  134.1130 H   0  0  0  0  0  0  0  0  0  0  0  0
  143.5010  151.5130  131.8570 H   0  0  0  0  0  0  0  0  0  0  0  0
  139.3973  152.9795  132.7497 H   0  0  0  0  0  0  0  0  0  0  0  0
  138.6411  155.7391  132.7373 H   0  0  0  0  0  0  0  0  0  0  0  0
  139.5311  158.0615  133.1233 H   0  0  0  0  0  0  0  0  0  0  0  0
  143.4813  156.4057  133.9471 H   0  0  0  0  0  0  0  0  0  0  0  0
  149.3440  153.6871  133.5872 H   0  0  0  0  0  0  0  0  0  0  0  0
  148.5841  152.9085  132.1578 H   0  0  0  0  0  0  0  0  0  0  0  0
  148.8945  154.6778  132.1578 H   0  0  0  0  0  0  0  0  0  0  0  0
  146.2892  156.0394  133.4965 H   0  0  0  0  0  0  0  0  0  0  0  0
  147.3873  155.8031  132.0947 H   0  0  0  0  0  0  0  0  0  0  0  0
  145.7563  155.0506  132.0947 H   0  0  0  0  0  0  0  0  0  0  0  0
  1  2  1  0
  2  3  1  0
  3  4  2  0
  3  5  1  0
  5  6  2  0
  5  7  1  0
  7  8  1  0
  8  9  1  0
  9 10  1  0
  9 11  2  0
  8 12  2  0
 12 13  1  0
 13 14  2  0
 14 15  1  0
 15 16  2  0
 16 17  1  0
 17 18  1  0
 17 19  1  0
 17 20  1  0
 16 21  1  0
 21 22  2  0
  2 23  1  0
 23 24  1  0
 23 25  1  0
 23 26  1  0
 26 27  2  0
 26 28  1  0
 22  7  1  0
 22 13  1  0
  1 29  1  0
  1 30  1  0
  1 31  1  0
  2 32  1  1
 10 33  1  0
 12 34  1  0
 14 35  1  0
 15 36  1  0
 21 37  1  0
 24 38  1  0
 24 39  1  0
 24 40  1  0
 25 41  1  0
 25 42  1  0
 25 43  1  0
M  CHG  3   2   1  10  -1  28  -1
M  END
>  <UniqueID>  (65) 
65

>  <SMILES>  (65) 
C[N@H+](C(=O)C(=O)n1c(C([NH-])=O)cc2ccc(C(F)(F)F)cc21)C(C)(C)C(=O)[O-]

>  <Energy>  (65) 
92.00812242538122

>  <Genealogy>  (65) 
C[NH+](C(=O)C(=O)n1c(C([NH-])=O)cc2ccc(C(F)(F)F)cc21)C(C)(C)C(=O)[O-] (protonated)
C[N@H+](C(=O)C(=O)n1c(C([NH-])=O)cc2ccc(C(F)(F)F)cc21)C(C)(C)C(=O)[O-] (chirality)
C[N@H+](C(=O)C(=O)n1c(C([NH-])=O)cc2ccc(C(F)(F)F)cc21)C(C)(C)C(=O)[O-] (3D coordinates assigned)
C[N@H+](C(=O)C(=O)n1c(C([NH-])=O)cc2ccc(C(F)(F)F)cc21)C(C)(C)C(=O)[O-] (optimized conformer: 92.00812242538122 kcal/mol)

>  <smiles>  (65) 
CN(C(=O)C(=O)n1c(C(N)=O)cc2ccc(C(F)(F)F)cc21)C(C)(C)C(=O)O

>  <score_type>  (65) 
oracle

>  <origin>  (65) 
adg

>  <m_score__min__energy>  (65) 
-5.9800000000000004

>  <m_primary>  (65) 
energy

$$$$
67:0
     RDKit          3D

 38 39  0  0  0  0  0  0  0  0999 V2000
  148.7980  161.5160  130.9850 C   0  0  0  0  0  0  0  0  0  0  0  0
  149.0160  160.0680  130.8920 N   0  0  0  0  0  0  0  0  0  0  0  0
  149.4320  159.4730  129.6180 C   0  0  0  0  0  0  0  0  0  0  0  0
  148.8310  159.2060  132.0370 C   0  0  0  0  0  0  0  0  0  0  0  0
  149.0400  157.9660  131.9220 O   0  0  0  0  0  0  0  0  0  0  0  0
  148.4220  159.7320  133.3890 C   0  0  0  0  0  0  0  0  0  0  0  0
  146.9240  159.8420  133.4970 C   0  0  0  0  0  0  0  0  0  0  0  0
  146.3210  161.1040  133.7290 C   0  0  0  0  0  0  0  0  0  0  0  0
  144.9260  161.2210  133.8430 C   0  0  0  0  0  0  0  0  0  0  0  0
  144.1620  160.0640  133.7160 C   0  0  0  0  0  0  0  0  0  0  0  0
  142.8000  159.8900  133.8030 C   0  0  0  0  0  0  0  0  0  0  0  0
  142.5880  158.5270  133.6010 C   0  0  0  0  0  0  0  0  0  0  0  0
  141.2450  157.9160  133.5220 C   0  0  0  0  0  0  0  0  0  0  0  0
  141.0860  156.5090  133.3620 N   0  0  0  0  0  0  0  0  0  0  0  0
  140.2220  158.6530  133.5480 O   0  0  0  0  0  0  0  0  0  0  0  0
  143.7760  157.8840  133.4090 N   0  0  0  0  0  0  0  0  0  0  0  0
  143.9990  156.4760  133.2350 C   0  0  0  0  0  0  0  0  0  0  0  0
  143.6050  155.9010  132.1850 O   0  0  0  0  0  0  0  0  0  0  0  0
  144.6330  155.7460  134.2460 O   0  0  0  0  0  0  0  0  0  0  0  0
  145.7470  154.8910  134.0100 C   0  0  0  0  0  0  0  0  0  0  0  0
  147.2540  155.6760  134.5480 Cl  0  0  0  0  0  0  0  0  0  0  0  0
  144.7270  158.8390  133.4800 C   0  0  0  0  0  0  0  0  0  0  0  0
  146.1160  158.6890  133.3870 C   0  0  0  0  0  0  0  0  0  0  0  0
  148.7533  161.8129  132.0432 H   0  0  0  0  0  0  0  0  0  0  0  0
  149.6268  162.0441  130.4907 H   0  0  0  0  0  0  0  0  0  0  0  0
  147.8505  161.7766  130.4907 H   0  0  0  0  0  0  0  0  0  0  0  0
  150.0523  158.5858  129.8129 H   0  0  0  0  0  0  0  0  0  0  0  0
  148.5418  159.1788  129.0427 H   0  0  0  0  0  0  0  0  0  0  0  0
  150.0139  160.2081  129.0427 H   0  0  0  0  0  0  0  0  0  0  0  0
  148.7890  159.0467  134.1673 H   0  0  0  0  0  0  0  0  0  0  0  0
  148.8564  160.7340  133.5203 H   0  0  0  0  0  0  0  0  0  0  0  0
  146.9519  162.0004  133.8206 H   0  0  0  0  0  0  0  0  0  0  0  0
  144.4518  162.1964  134.0269 H   0  0  0  0  0  0  0  0  0  0  0  0
  142.0398  160.6623  133.9918 H   0  0  0  0  0  0  0  0  0  0  0  0
  141.5290  156.0050  132.5630 H   0  0  0  0  0  0  0  0  0  0  0  0
  145.6082  153.9522  134.5663 H   0  0  0  0  0  0  0  0  0  0  0  0
  145.8167  154.6834  132.9320 H   0  0  0  0  0  0  0  0  0  0  0  0
  146.5667  157.6976  133.2321 H   0  0  0  0  0  0  0  0  0  0  0  0
  1  2  1  0
  2  3  1  0
  2  4  1  0
  4  5  2  0
  4  6  1  0
  6  7  1  0
  7  8  2  0
  8  9  1  0
  9 10  2  0
 10 11  1  0
 11 12  2  0
 12 13  1  0
 13 14  1  0
 13 15  2  0
 12 16  1  0
 16 17  1  0
 17 18  2  0
 17 19  1  0
 19 20  1  0
 20 21  1  0
 16 22  1  0
 22 23  2  0
 23  7  1  0
 22 10  1  0
  1 24  1  0
  1 25  1  0
  1 26  1  0
  3 27  1  0
  3 28  1  0
  3 29  1  0
  6 30  1  0
  6 31  1  0
  8 32  1  0
  9 33  1  0
 11 34  1  0
 14 35  1  0
 20 36  1  0
 20 37  1  0
 23 38  1  0
M  CHG  1  14  -1
M  END
>  <UniqueID>  (66) 
66

>  <SMILES>  (66) 
CN(C)C(=O)Cc1ccc2cc(C([NH-])=O)n(C(=O)OCCl)c2c1

>  <Energy>  (66) 
71.71239495346111

>  <Genealogy>  (66) 
CN(C)C(=O)Cc1ccc2cc(C([NH-])=O)n(C(=O)OCCl)c2c1 (protonated)
CN(C)C(=O)Cc1ccc2cc(C([NH-])=O)n(C(=O)OCCl)c2c1 (3D coordinates assigned)
CN(C)C(=O)Cc1ccc2cc(C([NH-])=O)n(C(=O)OCCl)c2c1 (optimized conformer: 71.71239495346111 kcal/mol)

>  <smiles>  (66) 
CN(C)C(=O)Cc1ccc2cc(C(N)=O)n(C(=O)OCCl)c2c1

>  <score_type>  (66) 
oracle

>  <origin>  (66) 
adg

>  <m_score__min__energy>  (66) 
-6.75

>  <m_primary>  (66) 
energy

$$$$
68:0
     RDKit          3D

 40 41  0  0  0  0  0  0  0  0999 V2000
  148.4890  160.8690  131.4030 C   0  0  0  0  0  0  0  0  0  0  0  0
  148.5000  159.5110  131.9600 N   0  0  0  0  0  0  0  0  0  0  0  0
  149.6350  158.6200  131.7010 C   0  0  0  0  0  0  0  0  0  0  0  0
  147.4050  159.0320  132.7710 C   0  0  0  0  0  0  0  0  0  0  0  0
  147.4570  157.8770  133.2760 O   0  0  0  0  0  0  0  0  0  0  0  0
  146.1760  159.8650  133.0180 C   0  0  0  0  0  0  0  0  0  0  0  0
  144.9990  159.1330  132.6900 O   0  0  0  0  0  0  0  0  0  0  0  0
  143.7860  159.2750  133.3740 C   0  0  0  0  0  0  0  0  0  0  0  0
  143.5510  160.3200  134.0390 O   0  0  0  0  0  0  0  0  0  0  0  0
  142.8120  158.2210  133.3200 N   0  0  0  0  0  0  0  0  0  0  0  0
  142.9530  156.9440  133.7750 C   0  0  0  0  0  0  0  0  0  0  0  0
  144.2060  156.3320  134.2610 C   0  0  0  0  0  0  0  0  0  0  0  0
  145.4460  156.5500  133.5870 N   0  0  0  0  0  0  0  0  0  0  0  0
  144.1720  155.5620  135.2570 O   0  0  0  0  0  0  0  0  0  0  0  0
  141.7480  156.2540  133.6870 C   0  0  0  0  0  0  0  0  0  0  0  0
  140.8540  157.1500  133.1460 C   0  0  0  0  0  0  0  0  0  0  0  0
  139.4990  157.0010  132.8650 C   0  0  0  0  0  0  0  0  0  0  0  0
  138.8070  158.1120  132.3570 C   0  0  0  0  0  0  0  0  0  0  0  0
  139.4740  159.3430  132.1420 C   0  0  0  0  0  0  0  0  0  0  0  0
  138.7120  160.5380  131.6430 C   0  0  0  0  0  0  0  0  0  0  0  0
  137.4190  160.1130  131.0970 C   0  0  0  0  0  0  0  0  0  0  0  0
  136.3990  159.7790  130.6640 N   0  0  0  0  0  0  0  0  0  0  0  0
  140.8480  159.4600  132.4510 C   0  0  0  0  0  0  0  0  0  0  0  0
  141.5190  158.3310  132.9360 C   0  0  0  0  0  0  0  0  0  0  0  0
  148.4831  161.6018  132.2234 H   0  0  0  0  0  0  0  0  0  0  0  0
  149.3860  161.0187  130.7841 H   0  0  0  0  0  0  0  0  0  0  0  0
  147.5897  161.0042  130.7841 H   0  0  0  0  0  0  0  0  0  0  0  0
  150.0630  158.2840  132.6570 H   0  0  0  0  0  0  0  0  0  0  0  0
  149.2922  157.7473  131.1258 H   0  0  0  0  0  0  0  0  0  0  0  0
  150.4014  159.1602  131.1258 H   0  0  0  0  0  0  0  0  0  0  0  0
  146.1401  160.1501  134.0798 H   0  0  0  0  0  0  0  0  0  0  0  0
  146.2231  160.7626  132.3840 H   0  0  0  0  0  0  0  0  0  0  0  0
  146.3280  156.1440  133.9690 H   0  0  0  0  0  0  0  0  0  0  0  0
  145.4810  157.0450  132.6680 H   0  0  0  0  0  0  0  0  0  0  0  0
  141.5516  155.2138  133.9861 H   0  0  0  0  0  0  0  0  0  0  0  0
  138.9863  156.0429  133.0356 H   0  0  0  0  0  0  0  0  0  0  0  0
  137.7356  158.0256  132.1235 H   0  0  0  0  0  0  0  0  0  0  0  0
  138.5443  161.2373  132.4754 H   0  0  0  0  0  0  0  0  0  0  0  0
  139.2937  161.0341  130.8521 H   0  0  0  0  0  0  0  0  0  0  0  0
  141.3772  160.4145  132.3139 H   0  0  0  0  0  0  0  0  0  0  0  0
  1  2  1  0
  2  3  1  0
  2  4  1  0
  4  5  2  0
  4  6  1  0
  6  7  1  0
  7  8  1  0
  8  9  2  0
  8 10  1  0
 10 11  1  0
 11 12  1  0
 12 13  1  0
 12 14  2  0
 11 15  2  0
 15 16  1  0
 16 17  2  0
 17 18  1  0
 18 19  2  0
 19 20  1  0
 20 21  1  0
 21 22  3  0
 19 23  1  0
 23 24  2  0
 24 10  1  0
 24 16  1  0
  1 25  1  0
  1 26  1  0
  1 27  1  0
  3 28  1  0
  3 29  1  0
  3 30  1  0
  6 31  1  0
  6 32  1  0
 13 33  1  0
 13 34  1  0
 15 35  1  0
 17 36  1  0
 18 37  1  0
 20 38  1  0
 20 39  1  0
 23 40  1  0
M  END
>  <UniqueID>  (67) 
67

>  <SMILES>  (67) 
CN(C)C(=O)COC(=O)n1c(C(N)=O)cc2ccc(CC#N)cc21

>  <Energy>  (67) 
72.24614344095167

>  <Genealogy>  (67) 
CN(C)C(=O)COC(=O)n1c(C(N)=O)cc2ccc(CC#N)cc21 (3D coordinates assigned)
CN(C)C(=O)COC(=O)n1c(C(N)=O)cc2ccc(CC#N)cc21 (optimized conformer: 72.24614344095167 kcal/mol)

>  <smiles>  (67) 
CN(C)C(=O)COC(=O)n1c(C(N)=O)cc2ccc(CC#N)cc21

>  <score_type>  (67) 
oracle

>  <origin>  (67) 
adg

>  <m_score__min__energy>  (67) 
-7.1299999999999999

>  <m_primary>  (67) 
energy

$$$$
69:0
     RDKit          3D

 37 39  0  0  0  0  0  0  0  0999 V2000
  138.7320  160.3920  131.8240 N   0  0  0  0  0  0  0  0  0  0  0  0
  139.9250  160.0950  132.5470 C   0  0  0  0  0  0  0  0  0  0  0  0
  140.6280  161.0430  132.9880 O   0  0  0  0  0  0  0  0  0  0  0  0
  140.3150  158.7000  132.8340 C   0  0  0  0  0  0  0  0  0  0  0  0
  139.4330  157.6260  132.7450 C   0  0  0  0  0  0  0  0  0  0  0  0
  140.1930  156.5080  132.9990 C   0  0  0  0  0  0  0  0  0  0  0  0
  139.8220  155.1690  133.0540 C   0  0  0  0  0  0  0  0  0  0  0  0
  140.8110  154.2230  133.3720 C   0  0  0  0  0  0  0  0  0  0  0  0
  142.1490  154.6250  133.6290 C   0  0  0  0  0  0  0  0  0  0  0  0
  143.1840  153.5800  134.0200 C   0  0  0  0  0  0  0  0  0  0  0  0
  144.6080  154.1750  134.0310 C   0  0  0  0  0  0  0  0  0  0  0  0
  145.2830  154.1720  132.6440 C   0  0  0  0  0  0  0  0  0  0  0  0
  145.0610  152.9350  131.8570 N   0  0  0  0  0  0  0  0  0  0  0  0
  144.4320  151.8410  132.6100 C   0  0  0  0  0  0  0  0  0  0  0  0
  143.0760  152.2810  133.1770 C   0  0  0  0  0  0  0  0  0  0  0  0
  142.4800  156.0010  133.5720 C   0  0  0  0  0  0  0  0  0  0  0  0
  141.4790  156.9180  133.2340 C   0  0  0  0  0  0  0  0  0  0  0  0
  141.5710  158.2640  133.1400 N   0  0  0  0  0  0  0  0  0  0  0  0
  142.7400  159.0560  133.4060 C   0  0  0  0  0  0  0  0  0  0  0  0
  142.6990  159.9880  134.2520 O   0  0  0  0  0  0  0  0  0  0  0  0
  143.9340  158.7850  132.7500 O   0  0  0  0  0  0  0  0  0  0  0  0
  138.1830  161.2570  132.0250 H   0  0  0  0  0  0  0  0  0  0  0  0
  138.3570  157.6637  132.5195 H   0  0  0  0  0  0  0  0  0  0  0  0
  138.7854  154.8597  132.8546 H   0  0  0  0  0  0  0  0  0  0  0  0
  140.5456  153.1567  133.4226 H   0  0  0  0  0  0  0  0  0  0  0  0
  142.9588  153.2736  135.0522 H   0  0  0  0  0  0  0  0  0  0  0  0
  144.5493  155.2138  134.3881 H   0  0  0  0  0  0  0  0  0  0  0  0
  145.2195  153.5427  134.6915 H   0  0  0  0  0  0  0  0  0  0  0  0
  144.8885  155.0218  132.0676 H   0  0  0  0  0  0  0  0  0  0  0  0
  146.3663  154.2404  132.8221 H   0  0  0  0  0  0  0  0  0  0  0  0
  144.4660  153.1530  131.0230 H   0  0  0  0  0  0  0  0  0  0  0  0
  145.9820  152.5920  131.4940 H   0  0  0  0  0  0  0  0  0  0  0  0
  144.2813  150.9817  131.9400 H   0  0  0  0  0  0  0  0  0  0  0  0
  145.0909  151.5630  133.4458 H   0  0  0  0  0  0  0  0  0  0  0  0
  142.3836  152.4584  132.3409 H   0  0  0  0  0  0  0  0  0  0  0  0
  142.7114  151.4804  133.8373 H   0  0  0  0  0  0  0  0  0  0  0  0
  143.5032  156.3416  133.7891 H   0  0  0  0  0  0  0  0  0  0  0  0
  1  2  1  0
  2  3  2  0
  2  4  1  0
  4  5  2  0
  5  6  1  0
  6  7  2  0
  7  8  1  0
  8  9  2  0
  9 10  1  0
 10 11  1  0
 11 12  1  0
 12 13  1  0
 13 14  1  0
 14 15  1  0
  9 16  1  0
 16 17  2  0
 17 18  1  0
 18 19  1  0
 19 20  2  0
 19 21  1  0
 18  4  1  0
 17  6  1  0
 15 10  1  0
  1 22  1  0
  5 23  1  0
  7 24  1  0
  8 25  1  0
 10 26  1  0
 11 27  1  0
 11 28  1  0
 12 29  1  0
 12 30  1  0
 13 31  1  0
 13 32  1  0
 14 33  1  0
 14 34  1  0
 15 35  1  0
 15 36  1  0
 16 37  1  0
M  CHG  3   1  -1  13   1  21  -1
M  END
>  <UniqueID>  (68) 
68

>  <SMILES>  (68) 
[NH-]C(=O)c1cc2ccc(C3CC[NH2+]CC3)cc2n1C(=O)[O-]

>  <Energy>  (68) 
86.72397057097496

>  <Genealogy>  (68) 
[NH-]C(=O)c1cc2ccc(C3CC[NH2+]CC3)cc2n1C(=O)[O-] (protonated)
[NH-]C(=O)c1cc2ccc(C3CC[NH2+]CC3)cc2n1C(=O)[O-] (3D coordinates assigned)
[NH-]C(=O)c1cc2ccc(C3CC[NH2+]CC3)cc2n1C(=O)[O-] (nonaromatic ring conformer: 86.72397057097496 kcal/mol)

>  <smiles>  (68) 
NC(=O)c1cc2ccc(C3CCNCC3)cc2n1C(=O)O

>  <score_type>  (68) 
oracle

>  <origin>  (68) 
adg

>  <m_score__min__energy>  (68) 
-6.7199999999999998

>  <m_primary>  (68) 
energy

$$$$
70:0
     RDKit          3D

 39 40  0  0  0  0  0  0  0  0999 V2000
  148.2000  155.0830  132.5580 C   0  0  0  0  0  0  0  0  0  0  0  0
  147.1640  155.8370  133.2720 N   0  0  0  0  0  0  0  0  0  0  0  0
  145.8670  155.1890  133.5270 C   0  0  0  0  0  0  0  0  0  0  0  0
  145.1460  154.8700  132.2150 C   0  0  0  0  0  0  0  0  0  0  0  0
  143.7350  154.5870  132.4540 N   0  0  0  0  0  0  0  0  0  0  0  0
  147.4830  157.1630  133.7590 C   0  0  0  0  0  0  0  0  0  0  0  0
  148.1070  157.2840  134.8500 O   0  0  0  0  0  0  0  0  0  0  0  0
  147.1140  158.4030  132.9760 C   0  0  0  0  0  0  0  0  0  0  0  0
  145.7330  158.9060  133.3100 C   0  0  0  0  0  0  0  0  0  0  0  0
  145.5000  160.2960  133.4630 C   0  0  0  0  0  0  0  0  0  0  0  0
  144.2270  160.7730  133.8190 C   0  0  0  0  0  0  0  0  0  0  0  0
  143.2130  159.8410  134.0160 C   0  0  0  0  0  0  0  0  0  0  0  0
  141.9030  160.0260  134.3960 C   0  0  0  0  0  0  0  0  0  0  0  0
  141.3510  158.7480  134.4570 C   0  0  0  0  0  0  0  0  0  0  0  0
  139.9250  158.4940  134.7500 C   0  0  0  0  0  0  0  0  0  0  0  0
  139.4810  158.2560  136.0830 N   0  0  0  0  0  0  0  0  0  0  0  0
  139.0960  158.4350  133.8030 O   0  0  0  0  0  0  0  0  0  0  0  0
  142.2860  157.8070  134.1370 N   0  0  0  0  0  0  0  0  0  0  0  0
  142.1450  156.3780  134.1660 C   0  0  0  0  0  0  0  0  0  0  0  0
  141.5590  155.7760  133.2280 O   0  0  0  0  0  0  0  0  0  0  0  0
  142.6310  155.6470  135.2440 O   0  0  0  0  0  0  0  0  0  0  0  0
  143.4190  158.4930  133.8660 C   0  0  0  0  0  0  0  0  0  0  0  0
  144.6810  157.9890  133.5300 C   0  0  0  0  0  0  0  0  0  0  0  0
  148.8671  154.5974  133.2855 H   0  0  0  0  0  0  0  0  0  0  0  0
  147.7264  154.3169  131.9266 H   0  0  0  0  0  0  0  0  0  0  0  0
  148.7834  155.7692  131.9266 H   0  0  0  0  0  0  0  0  0  0  0  0
  146.0349  154.2541  134.0818 H   0  0  0  0  0  0  0  0  0  0  0  0
  145.2404  155.8775  134.1129 H   0  0  0  0  0  0  0  0  0  0  0  0
  145.2310  155.7328  131.5379 H   0  0  0  0  0  0  0  0  0  0  0  0
  145.6120  153.9815  131.7640 H   0  0  0  0  0  0  0  0  0  0  0  0
  143.1730  155.2480  131.8680 H   0  0  0  0  0  0  0  0  0  0  0  0
  143.5200  154.8230  133.4500 H   0  0  0  0  0  0  0  0  0  0  0  0
  147.8428  159.1946  133.2046 H   0  0  0  0  0  0  0  0  0  0  0  0
  147.1250  158.1399  131.9080 H   0  0  0  0  0  0  0  0  0  0  0  0
  146.3231  161.0076  133.3016 H   0  0  0  0  0  0  0  0  0  0  0  0
  144.0381  161.8501  133.9382 H   0  0  0  0  0  0  0  0  0  0  0  0
  141.3987  160.9806  134.6069 H   0  0  0  0  0  0  0  0  0  0  0  0
  139.4640  159.0250  136.7880 H   0  0  0  0  0  0  0  0  0  0  0  0
  144.8494  156.9057  133.4395 H   0  0  0  0  0  0  0  0  0  0  0  0
  1  2  1  0
  2  3  1  0
  3  4  1  0
  4  5  1  0
  2  6  1  0
  6  7  2  0
  6  8  1  0
  8  9  1  0
  9 10  2  0
 10 11  1  0
 11 12  2  0
 12 13  1  0
 13 14  2  0
 14 15  1  0
 15 16  1  0
 15 17  2  0
 14 18  1  0
 18 19  1  0
 19 20  2  0
 19 21  1  0
 18 22  1  0
 22 23  2  0
 23  9  1  0
 22 12  1  0
  1 24  1  0
  1 25  1  0
  1 26  1  0
  3 27  1  0
  3 28  1  0
  4 29  1  0
  4 30  1  0
  5 31  1  0
  5 32  1  0
  8 33  1  0
  8 34  1  0
 10 35  1  0
 11 36  1  0
 13 37  1  0
 16 38  1  0
 23 39  1  0
M  CHG  2  16  -1  21  -1
M  END
>  <UniqueID>  (69) 
69

>  <SMILES>  (69) 
CN(CCN)C(=O)Cc1ccc2cc(C([NH-])=O)n(C(=O)[O-])c2c1

>  <Energy>  (69) 
74.78458986567746

>  <Genealogy>  (69) 
CN(CCN)C(=O)Cc1ccc2cc(C([NH-])=O)n(C(=O)[O-])c2c1 (protonated)
CN(CCN)C(=O)Cc1ccc2cc(C([NH-])=O)n(C(=O)[O-])c2c1 (3D coordinates assigned)
CN(CCN)C(=O)Cc1ccc2cc(C([NH-])=O)n(C(=O)[O-])c2c1 (optimized conformer: 74.78458986567746 kcal/mol)

>  <smiles>  (69) 
CN(CCN)C(=O)Cc1ccc2cc(C(N)=O)n(C(=O)O)c2c1

>  <score_type>  (69) 
oracle

>  <origin>  (69) 
adg

>  <m_score__min__energy>  (69) 
-6.5899999999999999

>  <m_primary>  (69) 
energy

$$$$
71:0
     RDKit          3D

 41 42  0  0  0  0  0  0  0  0999 V2000
  139.0530  157.7960  133.7010 C   0  0  0  0  0  0  0  0  0  0  0  0
  139.3640  158.2160  135.0240 O   0  0  0  0  0  0  0  0  0  0  0  0
  140.6230  158.0230  135.5980 C   0  0  0  0  0  0  0  0  0  0  0  0
  140.9050  158.5270  136.7200 O   0  0  0  0  0  0  0  0  0  0  0  0
  141.6620  157.2520  134.8490 C   0  0  0  0  0  0  0  0  0  0  0  0
  142.7720  158.1710  134.4190 C   0  0  0  0  0  0  0  0  0  0  0  0
  142.5860  159.5760  134.4500 C   0  0  0  0  0  0  0  0  0  0  0  0
  143.6310  160.4440  134.0940 C   0  0  0  0  0  0  0  0  0  0  0  0
  144.8470  159.8810  133.7160 C   0  0  0  0  0  0  0  0  0  0  0  0
  146.0310  160.4860  133.3570 C   0  0  0  0  0  0  0  0  0  0  0  0
  146.9200  159.4410  133.1080 C   0  0  0  0  0  0  0  0  0  0  0  0
  148.3120  159.6220  132.6330 C   0  0  0  0  0  0  0  0  0  0  0  0
  149.3990  158.9560  133.2770 N   0  0  0  0  0  0  0  0  0  0  0  0
  148.5510  160.3870  131.6610 O   0  0  0  0  0  0  0  0  0  0  0  0
  146.3050  158.2390  133.2970 N   0  0  0  0  0  0  0  0  0  0  0  0
  146.8940  156.9320  133.2090 C   0  0  0  0  0  0  0  0  0  0  0  0
  146.9980  156.3770  132.0820 O   0  0  0  0  0  0  0  0  0  0  0  0
  147.3310  156.2250  134.4340 C   0  0  0  0  0  0  0  0  0  0  0  0
  148.1360  156.8140  135.2050 O   0  0  0  0  0  0  0  0  0  0  0  0
  146.8670  154.8990  134.7730 N   0  0  0  0  0  0  0  0  0  0  0  0
  146.3000  154.0070  133.7560 C   0  0  0  0  0  0  0  0  0  0  0  0
  147.0690  154.4080  136.1390 C   0  0  0  0  0  0  0  0  0  0  0  0
  145.0400  158.5250  133.6750 C   0  0  0  0  0  0  0  0  0  0  0  0
  144.0240  157.6370  134.0430 C   0  0  0  0  0  0  0  0  0  0  0  0
  138.3988  156.9126  133.7410 H   0  0  0  0  0  0  0  0  0  0  0  0
  138.5380  158.6098  133.1695 H   0  0  0  0  0  0  0  0  0  0  0  0
  139.9816  157.5408  133.1695 H   0  0  0  0  0  0  0  0  0  0  0  0
  142.0716  156.4652  135.4995 H   0  0  0  0  0  0  0  0  0  0  0  0
  141.2032  156.7976  133.9585 H   0  0  0  0  0  0  0  0  0  0  0  0
  141.6139  159.9903  134.7558 H   0  0  0  0  0  0  0  0  0  0  0  0
  143.4931  161.5351  134.1132 H   0  0  0  0  0  0  0  0  0  0  0  0
  146.2326  161.5648  133.2825 H   0  0  0  0  0  0  0  0  0  0  0  0
  150.3780  159.1240  132.9550 H   0  0  0  0  0  0  0  0  0  0  0  0
  149.2390  158.2640  134.0410 H   0  0  0  0  0  0  0  0  0  0  0  0
  145.7725  153.1772  134.2491 H   0  0  0  0  0  0  0  0  0  0  0  0
  145.5932  154.5693  133.1281 H   0  0  0  0  0  0  0  0  0  0  0  0
  147.1091  153.6056  133.1281 H   0  0  0  0  0  0  0  0  0  0  0  0
  146.7518  155.1791  136.8565 H   0  0  0  0  0  0  0  0  0  0  0  0
  146.4728  153.4965  136.2929 H   0  0  0  0  0  0  0  0  0  0  0  0
  148.1340  154.1799  136.2929 H   0  0  0  0  0  0  0  0  0  0  0  0
  144.1958  156.5505  134.0396 H   0  0  0  0  0  0  0  0  0  0  0  0
  1  2  1  0
  2  3  1  0
  3  4  2  0
  3  5  1  0
  5  6  1  0
  6  7  2  0
  7  8  1  0
  8  9  2  0
  9 10  1  0
 10 11  2  0
 11 12  1  0
 12 13  1  0
 12 14  2  0
 11 15  1  0
 15 16  1  0
 16 17  2  0
 16 18  1  0
 18 19  2  0
 18 20  1  0
 20 21  1  0
 20 22  1  0
 15 23  1  0
 23 24  2  0
 24  6  1  0
 23  9  1  0
  1 25  1  0
  1 26  1  0
  1 27  1  0
  5 28  1  0
  5 29  1  0
  7 30  1  0
  8 31  1  0
 10 32  1  0
 13 33  1  0
 13 34  1  0
 21 35  1  0
 21 36  1  0
 21 37  1  0
 22 38  1  0
 22 39  1  0
 22 40  1  0
 24 41  1  0
M  END
>  <UniqueID>  (70) 
70

>  <SMILES>  (70) 
COC(=O)Cc1ccc2cc(C(N)=O)n(C(=O)C(=O)N(C)C)c2c1

>  <Energy>  (70) 
75.82528616903318

>  <Genealogy>  (70) 
COC(=O)Cc1ccc2cc(C(N)=O)n(C(=O)C(=O)N(C)C)c2c1 (3D coordinates assigned)
COC(=O)Cc1ccc2cc(C(N)=O)n(C(=O)C(=O)N(C)C)c2c1 (optimized conformer: 75.82528616903318 kcal/mol)

>  <smiles>  (70) 
COC(=O)Cc1ccc2cc(C(N)=O)n(C(=O)C(=O)N(C)C)c2c1

>  <score_type>  (70) 
oracle

>  <origin>  (70) 
adg

>  <m_score__min__energy>  (70) 
-7.0599999999999996

>  <m_primary>  (70) 
energy

$$$$
72:0
     RDKit          3D

 31 32  0  0  0  0  0  0  0  0999 V2000
  148.0960  156.5880  134.4450 C   0  0  0  0  0  0  0  0  0  0  0  0
  147.2940  155.3800  134.2290 N   0  0  0  0  0  0  0  0  0  0  0  0
  146.6910  154.7290  135.3640 C   0  0  0  0  0  0  0  0  0  0  0  0
  145.5500  155.0730  135.7740 O   0  0  0  0  0  0  0  0  0  0  0  0
  147.3720  153.7220  136.0390 O   0  0  0  0  0  0  0  0  0  0  0  0
  147.0690  154.8970  132.8870 C   0  0  0  0  0  0  0  0  0  0  0  0
  147.1720  155.6850  131.9080 O   0  0  0  0  0  0  0  0  0  0  0  0
  146.6870  153.5330  132.6520 N   0  0  0  0  0  0  0  0  0  0  0  0
  145.4390  153.0470  132.4000 C   0  0  0  0  0  0  0  0  0  0  0  0
  144.1900  153.8410  132.4400 C   0  0  0  0  0  0  0  0  0  0  0  0
  144.1380  155.1540  131.8800 N   0  0  0  0  0  0  0  0  0  0  0  0
  143.1510  153.3560  132.9590 O   0  0  0  0  0  0  0  0  0  0  0  0
  145.4900  151.6710  132.1800 C   0  0  0  0  0  0  0  0  0  0  0  0
  146.8170  151.3280  132.3130 C   0  0  0  0  0  0  0  0  0  0  0  0
  147.4400  150.0890  132.1950 C   0  0  0  0  0  0  0  0  0  0  0  0
  148.8330  150.0340  132.3700 C   0  0  0  0  0  0  0  0  0  0  0  0
  149.5710  151.2090  132.6540 C   0  0  0  0  0  0  0  0  0  0  0  0
  150.9890  151.1420  132.8220 N   0  0  0  0  0  0  0  0  0  0  0  0
  148.9060  152.4490  132.7690 C   0  0  0  0  0  0  0  0  0  0  0  0
  147.5170  152.4700  132.6000 C   0  0  0  0  0  0  0  0  0  0  0  0
  148.2121  156.7628  135.5248 H   0  0  0  0  0  0  0  0  0  0  0  0
  149.0871  156.4570  133.9861 H   0  0  0  0  0  0  0  0  0  0  0  0
  147.5906  157.4506  133.9861 H   0  0  0  0  0  0  0  0  0  0  0  0
  143.2410  155.6890  131.8850 H   0  0  0  0  0  0  0  0  0  0  0  0
  144.9900  155.6190  131.4990 H   0  0  0  0  0  0  0  0  0  0  0  0
  144.6484  151.0013  131.9491 H   0  0  0  0  0  0  0  0  0  0  0  0
  146.8600  149.1814  131.9718 H   0  0  0  0  0  0  0  0  0  0  0  0
  149.3552  149.0695  132.2856 H   0  0  0  0  0  0  0  0  0  0  0  0
  151.6260  151.7250  132.2350 H   0  0  0  0  0  0  0  0  0  0  0  0
  151.4130  150.5080  133.5350 H   0  0  0  0  0  0  0  0  0  0  0  0
  149.4637  153.3722  132.9852 H   0  0  0  0  0  0  0  0  0  0  0  0
  1  2  1  0
  2  3  1  0
  3  4  2  0
  3  5  1  0
  2  6  1  0
  6  7  2  0
  6  8  1  0
  8  9  1  0
  9 10  1  0
 10 11  1  0
 10 12  2  0
  9 13  2  0
 13 14  1  0
 14 15  2  0
 15 16  1  0
 16 17  2  0
 17 18  1  0
 17 19  1  0
 19 20  2  0
 20  8  1  0
 20 14  1  0
  1 21  1  0
  1 22  1  0
  1 23  1  0
 11 24  1  0
 11 25  1  0
 13 26  1  0
 15 27  1  0
 16 28  1  0
 18 29  1  0
 18 30  1  0
 19 31  1  0
M  CHG  1   5  -1
M  END
>  <UniqueID>  (71) 
71

>  <SMILES>  (71) 
CN(C(=O)[O-])C(=O)n1c(C(N)=O)cc2ccc(N)cc21

>  <Energy>  (71) 
71.11774681075438

>  <Genealogy>  (71) 
CN(C(=O)[O-])C(=O)n1c(C(N)=O)cc2ccc(N)cc21 (protonated)
CN(C(=O)[O-])C(=O)n1c(C(N)=O)cc2ccc(N)cc21 (3D coordinates assigned)
CN(C(=O)[O-])C(=O)n1c(C(N)=O)cc2ccc(N)cc21 (optimized conformer: 71.11774681075438 kcal/mol)

>  <smiles>  (71) 
CN(C(=O)O)C(=O)n1c(C(N)=O)cc2ccc(N)cc21

>  <score_type>  (71) 
oracle

>  <origin>  (71) 
adg

>  <m_score__min__energy>  (71) 
-5.8600000000000003

>  <m_primary>  (71) 
energy

$$$$
73:0
     RDKit          3D

 36 37  0  0  0  0  0  0  0  0999 V2000
  145.2920  154.5370  134.9990 C   0  0  0  0  0  0  0  0  0  0  0  0
  146.1730  153.7570  134.2010 O   0  0  0  0  0  0  0  0  0  0  0  0
  147.5600  153.7720  134.3780 C   0  0  0  0  0  0  0  0  0  0  0  0
  148.0740  153.3570  135.4520 O   0  0  0  0  0  0  0  0  0  0  0  0
  148.4490  154.2900  133.2750 C   0  0  1  0  0  0  0  0  0  0  0  0
  149.2250  153.1220  132.6560 C   0  0  0  0  0  0  0  0  0  0  0  0
  147.6660  154.9960  132.2400 N   0  0  0  0  0  0  0  0  0  0  0  0
  147.6060  156.4150  132.5060 C   0  0  0  0  0  0  0  0  0  0  0  0
  148.7810  157.2070  132.4260 C   0  0  0  0  0  0  0  0  0  0  0  0
  148.7390  158.5830  132.7040 C   0  0  0  0  0  0  0  0  0  0  0  0
  147.5170  159.1380  133.0710 C   0  0  0  0  0  0  0  0  0  0  0  0
  147.1940  160.4400  133.3770 C   0  0  0  0  0  0  0  0  0  0  0  0
  145.8310  160.4230  133.6690 C   0  0  0  0  0  0  0  0  0  0  0  0
  145.0860  161.6100  134.1370 C   0  0  0  0  0  0  0  0  0  0  0  0
  143.7360  161.8090  133.7250 N   0  0  0  0  0  0  0  0  0  0  0  0
  145.6400  162.4730  134.8690 O   0  0  0  0  0  0  0  0  0  0  0  0
  145.3300  159.1610  133.5420 N   0  0  0  0  0  0  0  0  0  0  0  0
  143.9640  158.7390  133.6880 C   0  0  0  0  0  0  0  0  0  0  0  0
  143.2950  159.0880  134.6970 O   0  0  0  0  0  0  0  0  0  0  0  0
  143.3760  157.9200  132.7330 O   0  0  0  0  0  0  0  0  0  0  0  0
  146.3760  158.3870  133.1770 C   0  0  0  0  0  0  0  0  0  0  0  0
  146.3820  157.0180  132.8850 C   0  0  0  0  0  0  0  0  0  0  0  0
  145.5006  154.3523  136.0631 H   0  0  0  0  0  0  0  0  0  0  0  0
  145.4423  155.6036  134.7756 H   0  0  0  0  0  0  0  0  0  0  0  0
  144.2515  154.2586  134.7756 H   0  0  0  0  0  0  0  0  0  0  0  0
  149.1564  155.0140  133.7055 H   0  0  0  0  0  0  0  0  0  0  0  0
  149.6424  152.4938  133.4567 H   0  0  0  0  0  0  0  0  0  0  0  0
  148.5467  152.5200  132.0336 H   0  0  0  0  0  0  0  0  0  0  0  0
  150.0428  153.5140  132.0336 H   0  0  0  0  0  0  0  0  0  0  0  0
  146.7000  154.5970  132.1790 H   0  0  0  0  0  0  0  0  0  0  0  0
  148.1160  154.8550  131.3050 H   0  0  0  0  0  0  0  0  0  0  0  0
  149.7350  156.7380  132.1432 H   0  0  0  0  0  0  0  0  0  0  0  0
  149.6448  159.2032  132.6337 H   0  0  0  0  0  0  0  0  0  0  0  0
  147.8679  161.3093  133.3887 H   0  0  0  0  0  0  0  0  0  0  0  0
  143.0120  161.0730  133.8860 H   0  0  0  0  0  0  0  0  0  0  0  0
  145.4579  156.4247  132.9484 H   0  0  0  0  0  0  0  0  0  0  0  0
  1  2  1  0
  2  3  1  0
  3  4  2  0
  3  5  1  0
  5  6  1  0
  5  7  1  0
  7  8  1  0
  8  9  2  0
  9 10  1  0
 10 11  2  0
 11 12  1  0
 12 13  2  0
 13 14  1  0
 14 15  1  0
 14 16  2  0
 13 17  1  0
 17 18  1  0
 18 19  2  0
 18 20  1  0
 17 21  1  0
 21 22  2  0
 22  8  1  0
 21 11  1  0
  1 23  1  0
  1 24  1  0
  1 25  1  0
  5 26  1  1
  6 27  1  0
  6 28  1  0
  6 29  1  0
  7 30  1  0
  7 31  1  0
  9 32  1  0
 10 33  1  0
 12 34  1  0
 15 35  1  0
 22 36  1  0
M  CHG  3   7   1  15  -1  20  -1
M  END
>  <UniqueID>  (72) 
72

>  <SMILES>  (72) 
COC(=O)[C@@H](C)[NH2+]c1ccc2cc(C([NH-])=O)n(C(=O)[O-])c2c1

>  <Energy>  (72) 
71.67407275416763

>  <Genealogy>  (72) 
COC(=O)C(C)[NH2+]c1ccc2cc(C([NH-])=O)n(C(=O)[O-])c2c1 (protonated)
COC(=O)[C@@H](C)[NH2+]c1ccc2cc(C([NH-])=O)n(C(=O)[O-])c2c1 (chirality)
COC(=O)[C@@H](C)[NH2+]c1ccc2cc(C([NH-])=O)n(C(=O)[O-])c2c1 (3D coordinates assigned)
COC(=O)[C@@H](C)[NH2+]c1ccc2cc(C([NH-])=O)n(C(=O)[O-])c2c1 (optimized conformer: 71.67407275416763 kcal/mol)

>  <smiles>  (72) 
COC(=O)C(C)Nc1ccc2cc(C(N)=O)n(C(=O)O)c2c1

>  <score_type>  (72) 
oracle

>  <origin>  (72) 
adg

>  <m_score__min__energy>  (72) 
-6.3399999999999999

>  <m_primary>  (72) 
energy

$$$$
74:0
     RDKit          3D

 38 39  0  0  0  0  0  0  0  0999 V2000
  140.9870  159.3410  137.1600 C   0  0  0  0  0  0  0  0  0  0  0  0
  140.9600  158.3580  135.9770 C   0  0  0  0  0  0  0  0  0  0  0  0
  141.5930  157.0180  136.4030 C   0  0  0  0  0  0  0  0  0  0  0  0
  139.4980  158.1060  135.5550 C   0  0  0  0  0  0  0  0  0  0  0  0
  141.7390  158.9650  134.8250 C   0  0  0  0  0  0  0  0  0  0  0  0
  141.1270  159.5640  133.8990 O   0  0  0  0  0  0  0  0  0  0  0  0
  143.1280  158.7800  134.7580 O   0  0  0  0  0  0  0  0  0  0  0  0
  143.8640  158.5790  133.5830 C   0  0  0  0  0  0  0  0  0  0  0  0
  143.3750  157.9330  132.6180 O   0  0  0  0  0  0  0  0  0  0  0  0
  145.2040  159.0900  133.4960 N   0  0  0  0  0  0  0  0  0  0  0  0
  145.6160  160.3870  133.5980 C   0  0  0  0  0  0  0  0  0  0  0  0
  144.7750  161.5390  133.9860 C   0  0  0  0  0  0  0  0  0  0  0  0
  143.3730  161.5420  133.7340 N   0  0  0  0  0  0  0  0  0  0  0  0
  145.2950  162.5130  134.5930 O   0  0  0  0  0  0  0  0  0  0  0  0
  146.9860  160.4820  133.3690 C   0  0  0  0  0  0  0  0  0  0  0  0
  147.4090  159.1940  133.1330 C   0  0  0  0  0  0  0  0  0  0  0  0
  148.6800  158.7090  132.8420 C   0  0  0  0  0  0  0  0  0  0  0  0
  148.8220  157.3290  132.6190 C   0  0  0  0  0  0  0  0  0  0  0  0
  147.6990  156.4700  132.6820 C   0  0  0  0  0  0  0  0  0  0  0  0
  147.8550  155.0680  132.4410 N   0  0  0  0  0  0  0  0  0  0  0  0
  146.4240  156.9960  132.9780 C   0  0  0  0  0  0  0  0  0  0  0  0
  146.3130  158.3720  133.2150 C   0  0  0  0  0  0  0  0  0  0  0  0
  140.9715  158.7781  138.1049 H   0  0  0  0  0  0  0  0  0  0  0  0
  141.9022  159.9493  137.1105 H   0  0  0  0  0  0  0  0  0  0  0  0
  140.1066  159.9986  137.1105 H   0  0  0  0  0  0  0  0  0  0  0  0
  141.6211  156.9584  137.5010 H   0  0  0  0  0  0  0  0  0  0  0  0
  140.9926  156.1862  136.0059 H   0  0  0  0  0  0  0  0  0  0  0  0
  142.6168  156.9535  136.0059 H   0  0  0  0  0  0  0  0  0  0  0  0
  138.8708  157.9979  136.4522 H   0  0  0  0  0  0  0  0  0  0  0  0
  139.1377  158.9553  134.9559 H   0  0  0  0  0  0  0  0  0  0  0  0
  139.4428  157.1851  134.9559 H   0  0  0  0  0  0  0  0  0  0  0  0
  142.8380  160.6470  133.6650 H   0  0  0  0  0  0  0  0  0  0  0  0
  147.6006  161.3942  133.3754 H   0  0  0  0  0  0  0  0  0  0  0  0
  149.5465  159.3845  132.7882 H   0  0  0  0  0  0  0  0  0  0  0  0
  149.8148  156.9126  132.3935 H   0  0  0  0  0  0  0  0  0  0  0  0
  148.1120  154.4190  133.2180 H   0  0  0  0  0  0  0  0  0  0  0  0
  147.7160  154.6720  131.4860 H   0  0  0  0  0  0  0  0  0  0  0  0
  145.5401  156.3427  133.0215 H   0  0  0  0  0  0  0  0  0  0  0  0
  1  2  1  0
  2  3  1  0
  2  4  1  0
  2  5  1  0
  5  6  2  0
  5  7  1  0
  7  8  1  0
  8  9  2  0
  8 10  1  0
 10 11  1  0
 11 12  1  0
 12 13  1  0
 12 14  2  0
 11 15  2  0
 15 16  1  0
 16 17  2  0
 17 18  1  0
 18 19  2  0
 19 20  1  0
 19 21  1  0
 21 22  2  0
 22 10  1  0
 22 16  1  0
  1 23  1  0
  1 24  1  0
  1 25  1  0
  3 26  1  0
  3 27  1  0
  3 28  1  0
  4 29  1  0
  4 30  1  0
  4 31  1  0
 13 32  1  0
 15 33  1  0
 17 34  1  0
 18 35  1  0
 20 36  1  0
 20 37  1  0
 21 38  1  0
M  CHG  1  13  -1
M  END
>  <UniqueID>  (73) 
73

>  <SMILES>  (73) 
CC(C)(C)C(=O)OC(=O)n1c(C([NH-])=O)cc2ccc(N)cc21

>  <Energy>  (73) 
72.6723904944891

>  <Genealogy>  (73) 
CC(C)(C)C(=O)OC(=O)n1c(C([NH-])=O)cc2ccc(N)cc21 (protonated)
CC(C)(C)C(=O)OC(=O)n1c(C([NH-])=O)cc2ccc(N)cc21 (3D coordinates assigned)
CC(C)(C)C(=O)OC(=O)n1c(C([NH-])=O)cc2ccc(N)cc21 (optimized conformer: 72.6723904944891 kcal/mol)

>  <smiles>  (73) 
CC(C)(C)C(=O)OC(=O)n1c(C(N)=O)cc2ccc(N)cc21

>  <score_type>  (73) 
oracle

>  <origin>  (73) 
adg

>  <m_score__min__energy>  (73) 
-6.79

>  <m_primary>  (73) 
energy

$$$$
75:0
     RDKit          3D

 46 50  0  0  0  0  0  0  0  0999 V2000
  141.8030  157.7140  132.4230 N   0  0  0  0  0  0  0  0  0  0  0  0
  141.5660  158.1660  133.7570 C   0  0  0  0  0  0  0  0  0  0  0  0
  141.4630  159.4020  133.9790 O   0  0  0  0  0  0  0  0  0  0  0  0
  141.4890  157.2190  134.8890 C   0  0  0  0  0  0  0  0  0  0  0  0
  140.8270  157.4950  136.0830 C   0  0  0  0  0  0  0  0  0  0  0  0
  140.9990  156.3730  136.8610 C   0  0  0  0  0  0  0  0  0  0  0  0
  140.5150  156.0840  138.1330 C   0  0  0  0  0  0  0  0  0  0  0  0
  140.7960  154.8170  138.6730 C   0  0  0  0  0  0  0  0  0  0  0  0
  141.5530  153.8660  137.9380 C   0  0  0  0  0  0  0  0  0  0  0  0
  141.7930  152.4880  138.5000 C   0  0  0  0  0  0  0  0  0  0  0  0
  141.1670  152.3820  139.7280 F   0  0  0  0  0  0  0  0  0  0  0  0
  143.1490  152.2570  138.6640 F   0  0  0  0  0  0  0  0  0  0  0  0
  141.2880  151.5190  137.6500 F   0  0  0  0  0  0  0  0  0  0  0  0
  141.9990  154.1890  136.6360 C   0  0  0  0  0  0  0  0  0  0  0  0
  141.7300  155.4670  136.1360 C   0  0  0  0  0  0  0  0  0  0  0  0
  142.0440  155.9760  134.9250 N   0  0  0  0  0  0  0  0  0  0  0  0
  142.6850  155.2770  133.8450 C   0  0  0  0  0  0  0  0  0  0  0  0
  143.7110  155.7770  133.3110 O   0  0  0  0  0  0  0  0  0  0  0  0
  142.1700  153.9720  133.3820 C   0  0  0  0  0  0  0  0  0  0  0  0
  143.0090  152.8600  133.2590 C   0  0  0  0  0  0  0  0  0  0  0  0
  142.4780  151.6490  132.8210 C   0  0  0  0  0  0  0  0  0  0  0  0
  141.1120  151.5650  132.5160 C   0  0  0  0  0  0  0  0  0  0  0  0
  140.5140  150.3380  132.0560 N   0  0  0  0  0  0  0  0  0  0  0  0
  139.0800  150.1880  131.8670 C   0  0  0  0  0  0  0  0  0  0  0  0
  138.8630  148.7650  131.3680 C   0  0  1  0  0  0  0  0  0  0  0  0
  139.4640  148.4280  130.0120 C   0  0  0  0  0  0  0  0  0  0  0  0
  140.2280  148.1020  131.2880 C   0  0  1  0  0  0  0  0  0  0  0  0
  141.2580  149.1280  131.7370 C   0  0  0  0  0  0  0  0  0  0  0  0
  140.3410  152.6780  132.6620 N   0  0  0  0  0  0  0  0  0  0  0  0
  140.8500  153.8370  133.0800 N   0  0  0  0  0  0  0  0  0  0  0  0
  141.7960  158.3950  131.6310 H   0  0  0  0  0  0  0  0  0  0  0  0
  142.0870  156.7290  132.2270 H   0  0  0  0  0  0  0  0  0  0  0  0
  140.2829  158.4137  136.3476 H   0  0  0  0  0  0  0  0  0  0  0  0
  139.9303  156.8243  138.6988 H   0  0  0  0  0  0  0  0  0  0  0  0
  140.4255  154.5591  139.6761 H   0  0  0  0  0  0  0  0  0  0  0  0
  142.5454  153.4515  136.0297 H   0  0  0  0  0  0  0  0  0  0  0  0
  144.0779  152.9408  133.5057 H   0  0  0  0  0  0  0  0  0  0  0  0
  143.1251  150.7658  132.7152 H   0  0  0  0  0  0  0  0  0  0  0  0
  138.5517  150.3427  132.8194 H   0  0  0  0  0  0  0  0  0  0  0  0
  138.6908  150.9272  131.1514 H   0  0  0  0  0  0  0  0  0  0  0  0
  137.8677  148.5736  131.7954 H   0  0  0  0  0  0  0  0  0  0  0  0
  139.0340  147.6171  129.4057 H   0  0  0  0  0  0  0  0  0  0  0  0
  139.6850  148.9953  129.0958 H   0  0  0  0  0  0  0  0  0  0  0  0
  140.7293  147.1837  131.6279 H   0  0  0  0  0  0  0  0  0  0  0  0
  141.7952  148.7653  132.6257 H   0  0  0  0  0  0  0  0  0  0  0  0
  142.0072  149.3132  130.9532 H   0  0  0  0  0  0  0  0  0  0  0  0
  1  2  1  0
  2  3  2  0
  2  4  1  0
  4  5  2  0
  5  6  1  0
  6  7  2  0
  7  8  1  0
  8  9  2  0
  9 10  1  0
 10 11  1  0
 10 12  1  0
 10 13  1  0
  9 14  1  0
 14 15  2  0
 15 16  1  0
 16 17  1  0
 17 18  2  0
 17 19  1  0
 19 20  2  0
 20 21  1  0
 21 22  2  0
 22 23  1  0
 23 24  1  0
 24 25  1  0
 25 26  1  0
 26 27  1  0
 27 28  1  0
 22 29  1  0
 29 30  2  0
 16  4  1  0
 30 19  1  0
 15  6  1  0
 28 23  1  0
 27 25  1  0
  1 31  1  0
  1 32  1  0
  5 33  1  0
  7 34  1  0
  8 35  1  0
 14 36  1  0
 20 37  1  0
 21 38  1  0
 24 39  1  0
 24 40  1  0
 25 41  1  1
 26 42  1  0
 26 43  1  0
 27 44  1  1
 28 45  1  0
 28 46  1  0
M  END
>  <UniqueID>  (74) 
74

>  <SMILES>  (74) 
NC(=O)c1cc2ccc(C(F)(F)F)cc2n1C(=O)c1ccc(N2C[C@H]3C[C@H]3C2)nn1

>  <Energy>  (74) 
358.3105851815392

>  <Genealogy>  (74) 
NC(=O)c1cc2ccc(C(F)(F)F)cc2n1C(=O)c1ccc(N2C[C@H]3C[C@H]3C2)nn1 (chirality)
NC(=O)c1cc2ccc(C(F)(F)F)cc2n1C(=O)c1ccc(N2C[C@H]3C[C@H]3C2)nn1 (3D coordinates assigned)
NC(=O)c1cc2ccc(C(F)(F)F)cc2n1C(=O)c1ccc(N2C[C@H]3C[C@H]3C2)nn1 (nonaromatic ring conformer: 358.3105851815392 kcal/mol)

>  <smiles>  (74) 
NC(=O)c1cc2ccc(C(F)(F)F)cc2n1C(=O)c1ccc(N2CC3CC3C2)nn1

>  <score_type>  (74) 
oracle

>  <origin>  (74) 
adg

>  <m_score__min__energy>  (74) 
-9.4399999999999995

>  <m_primary>  (74) 
energy

$$$$
76:0
     RDKit          3D

 43 44  0  0  0  0  0  0  0  0999 V2000
  149.5960  159.9280  130.1020 C   0  0  0  0  0  0  0  0  0  0  0  0
  149.0760  160.4180  131.4530 C   0  0  0  0  0  0  0  0  0  0  0  0
  149.0540  159.3070  132.5110 C   0  0  0  0  0  0  0  0  0  0  0  0
  147.7560  158.5600  132.4900 C   0  0  0  0  0  0  0  0  0  0  0  0
  147.7340  157.3360  132.7890 O   0  0  0  0  0  0  0  0  0  0  0  0
  146.5810  159.2380  132.1520 O   0  0  0  0  0  0  0  0  0  0  0  0
  145.8920  160.1160  133.0390 C   0  0  0  0  0  0  0  0  0  0  0  0
  144.9280  159.3810  133.7880 O   0  0  0  0  0  0  0  0  0  0  0  0
  143.5450  159.5690  133.6780 C   0  0  0  0  0  0  0  0  0  0  0  0
  143.0680  160.7310  133.7590 O   0  0  0  0  0  0  0  0  0  0  0  0
  142.6780  158.4400  133.4380 N   0  0  0  0  0  0  0  0  0  0  0  0
  142.9160  157.1340  133.7610 C   0  0  0  0  0  0  0  0  0  0  0  0
  144.1830  156.5810  134.2670 C   0  0  0  0  0  0  0  0  0  0  0  0
  145.4230  156.9100  133.6410 N   0  0  0  0  0  0  0  0  0  0  0  0
  144.1640  155.7520  135.2140 O   0  0  0  0  0  0  0  0  0  0  0  0
  141.7780  156.3580  133.5770 C   0  0  0  0  0  0  0  0  0  0  0  0
  140.8260  157.2230  133.0970 C   0  0  0  0  0  0  0  0  0  0  0  0
  139.5090  156.9750  132.7250 C   0  0  0  0  0  0  0  0  0  0  0  0
  138.7440  158.0490  132.2460 C   0  0  0  0  0  0  0  0  0  0  0  0
  139.3080  159.3480  132.1360 C   0  0  0  0  0  0  0  0  0  0  0  0
  138.5450  160.4590  131.6300 N   0  0  0  0  0  0  0  0  0  0  0  0
  137.9440  160.4870  130.3010 C   0  0  0  0  0  0  0  0  0  0  0  0
  140.6500  159.5580  132.5230 C   0  0  0  0  0  0  0  0  0  0  0  0
  141.3880  158.4720  133.0180 C   0  0  0  0  0  0  0  0  0  0  0  0
  150.3880  159.1817  130.2627 H   0  0  0  0  0  0  0  0  0  0  0  0
  148.7712  159.4712  129.5355 H   0  0  0  0  0  0  0  0  0  0  0  0
  150.0031  160.7785  129.5355 H   0  0  0  0  0  0  0  0  0  0  0  0
  149.7268  161.2306  131.8080 H   0  0  0  0  0  0  0  0  0  0  0  0
  148.0415  160.7629  131.3083 H   0  0  0  0  0  0  0  0  0  0  0  0
  149.8753  158.6037  132.3090 H   0  0  0  0  0  0  0  0  0  0  0  0
  149.1720  159.7695  133.5021 H   0  0  0  0  0  0  0  0  0  0  0  0
  146.6133  160.5807  133.7273 H   0  0  0  0  0  0  0  0  0  0  0  0
  145.3825  160.8973  132.4560 H   0  0  0  0  0  0  0  0  0  0  0  0
  146.3190  156.5200  134.0100 H   0  0  0  0  0  0  0  0  0  0  0  0
  145.4450  157.4990  132.7780 H   0  0  0  0  0  0  0  0  0  0  0  0
  141.6643  155.2817  133.7737 H   0  0  0  0  0  0  0  0  0  0  0  0
  139.0794  155.9655  132.8041 H   0  0  0  0  0  0  0  0  0  0  0  0
  137.6968  157.8835  131.9526 H   0  0  0  0  0  0  0  0  0  0  0  0
  138.4080  161.2970  132.2410 H   0  0  0  0  0  0  0  0  0  0  0  0
  136.8492  160.5380  130.3947 H   0  0  0  0  0  0  0  0  0  0  0  0
  138.3066  161.3692  129.7531 H   0  0  0  0  0  0  0  0  0  0  0  0
  138.2230  159.5749  129.7531 H   0  0  0  0  0  0  0  0  0  0  0  0
  141.1082  160.5544  132.4379 H   0  0  0  0  0  0  0  0  0  0  0  0
  1  2  1  0
  2  3  1  0
  3  4  1  0
  4  5  2  0
  4  6  1  0
  6  7  1  0
  7  8  1  0
  8  9  1  0
  9 10  2  0
  9 11  1  0
 11 12  1  0
 12 13  1  0
 13 14  1  0
 13 15  2  0
 12 16  2  0
 16 17  1  0
 17 18  2  0
 18 19  1  0
 19 20  2  0
 20 21  1  0
 21 22  1  0
 20 23  1  0
 23 24  2  0
 24 11  1  0
 24 17  1  0
  1 25  1  0
  1 26  1  0
  1 27  1  0
  2 28  1  0
  2 29  1  0
  3 30  1  0
  3 31  1  0
  7 32  1  0
  7 33  1  0
 14 34  1  0
 14 35  1  0
 16 36  1  0
 18 37  1  0
 19 38  1  0
 21 39  1  0
 22 40  1  0
 22 41  1  0
 22 42  1  0
 23 43  1  0
M  END
>  <UniqueID>  (75) 
75

>  <SMILES>  (75) 
CCCC(=O)OCOC(=O)n1c(C(N)=O)cc2ccc(NC)cc21

>  <Energy>  (75) 
75.75925322916432

>  <Genealogy>  (75) 
CCCC(=O)OCOC(=O)n1c(C(N)=O)cc2ccc(NC)cc21 (3D coordinates assigned)
CCCC(=O)OCOC(=O)n1c(C(N)=O)cc2ccc(NC)cc21 (optimized conformer: 75.75925322916432 kcal/mol)

>  <smiles>  (75) 
CCCC(=O)OCOC(=O)n1c(C(N)=O)cc2ccc(NC)cc21

>  <score_type>  (75) 
oracle

>  <origin>  (75) 
adg

>  <m_score__min__energy>  (75) 
-6.6799999999999997

>  <m_primary>  (75) 
energy

$$$$
77:0
     RDKit          3D

 37 38  0  0  0  0  0  0  0  0999 V2000
  138.5240  157.9100  132.4050 N   0  0  0  0  0  0  0  0  0  0  0  0
  139.6730  158.5420  132.9670 C   0  0  0  0  0  0  0  0  0  0  0  0
  140.2320  159.4760  132.3350 O   0  0  0  0  0  0  0  0  0  0  0  0
  140.1640  158.1240  134.2970 C   0  0  0  0  0  0  0  0  0  0  0  0
  140.2290  158.9800  135.3940 C   0  0  0  0  0  0  0  0  0  0  0  0
  140.8230  158.2460  136.3950 C   0  0  0  0  0  0  0  0  0  0  0  0
  141.1400  158.6060  137.7010 C   0  0  0  0  0  0  0  0  0  0  0  0
  141.7430  157.6380  138.5230 C   0  0  0  0  0  0  0  0  0  0  0  0
  142.0030  156.3320  138.0340 C   0  0  0  0  0  0  0  0  0  0  0  0
  142.6290  155.3490  138.8870 N   0  0  0  0  0  0  0  0  0  0  0  0
  141.6290  154.5180  139.5790 C   0  0  0  0  0  0  0  0  0  0  0  0
  141.6990  153.0440  139.1510 C   0  0  0  0  0  0  0  0  0  0  0  0
  142.9390  152.7710  138.5570 O   0  0  0  0  0  0  0  0  0  0  0  0
  141.6640  156.0060  136.7010 C   0  0  0  0  0  0  0  0  0  0  0  0
  141.0900  156.9970  135.8980 C   0  0  0  0  0  0  0  0  0  0  0  0
  140.6890  156.9030  134.6100 N   0  0  0  0  0  0  0  0  0  0  0  0
  140.7830  155.7370  133.7770 C   0  0  0  0  0  0  0  0  0  0  0  0
  139.8640  155.4720  132.9550 O   0  0  0  0  0  0  0  0  0  0  0  0
  141.8830  154.8840  133.9050 O   0  0  0  0  0  0  0  0  0  0  0  0
  141.7560  153.4760  134.0430 C   0  0  0  0  0  0  0  0  0  0  0  0
  142.0800  153.0910  135.4480 C   0  0  0  0  0  0  0  0  0  0  0  0
  141.4340  152.1730  136.0160 O   0  0  0  0  0  0  0  0  0  0  0  0
  143.0610  153.7800  136.1510 O   0  0  0  0  0  0  0  0  0  0  0  0
  138.3040  156.9110  132.6150 H   0  0  0  0  0  0  0  0  0  0  0  0
  139.8797  160.0216  135.4485 H   0  0  0  0  0  0  0  0  0  0  0  0
  140.9255  159.6166  138.0786 H   0  0  0  0  0  0  0  0  0  0  0  0
  142.0162  157.8961  139.5568 H   0  0  0  0  0  0  0  0  0  0  0  0
  143.2560  155.8130  139.5860 H   0  0  0  0  0  0  0  0  0  0  0  0
  143.2320  154.7270  138.3010 H   0  0  0  0  0  0  0  0  0  0  0  0
  141.8061  154.5805  140.6629 H   0  0  0  0  0  0  0  0  0  0  0  0
  140.6321  154.8989  139.3122 H   0  0  0  0  0  0  0  0  0  0  0  0
  141.5705  152.4024  140.0352 H   0  0  0  0  0  0  0  0  0  0  0  0
  140.8999  152.8434  138.4222 H   0  0  0  0  0  0  0  0  0  0  0  0
  142.7970  152.7990  137.5740 H   0  0  0  0  0  0  0  0  0  0  0  0
  141.8473  154.9965  136.3044 H   0  0  0  0  0  0  0  0  0  0  0  0
  140.7248  153.1744  133.8071 H   0  0  0  0  0  0  0  0  0  0  0  0
  142.4481  152.9724  133.3521 H   0  0  0  0  0  0  0  0  0  0  0  0
  1  2  1  0
  2  3  2  0
  2  4  1  0
  4  5  2  0
  5  6  1  0
  6  7  2  0
  7  8  1  0
  8  9  2  0
  9 10  1  0
 10 11  1  0
 11 12  1  0
 12 13  1  0
  9 14  1  0
 14 15  2  0
 15 16  1  0
 16 17  1  0
 17 18  2  0
 17 19  1  0
 19 20  1  0
 20 21  1  0
 21 22  2  0
 21 23  1  0
 16  4  1  0
 15  6  1  0
  1 24  1  0
  5 25  1  0
  7 26  1  0
  8 27  1  0
 10 28  1  0
 10 29  1  0
 11 30  1  0
 11 31  1  0
 12 32  1  0
 12 33  1  0
 13 34  1  0
 14 35  1  0
 20 36  1  0
 20 37  1  0
M  CHG  3   1  -1  10   1  23  -1
M  END
>  <UniqueID>  (76) 
76

>  <SMILES>  (76) 
[NH-]C(=O)c1cc2ccc([NH2+]CCO)cc2n1C(=O)OCC(=O)[O-]

>  <Energy>  (76) 
71.45814830927979

>  <Genealogy>  (76) 
[NH-]C(=O)c1cc2ccc([NH2+]CCO)cc2n1C(=O)OCC(=O)[O-] (protonated)
[NH-]C(=O)c1cc2ccc([NH2+]CCO)cc2n1C(=O)OCC(=O)[O-] (3D coordinates assigned)
[NH-]C(=O)c1cc2ccc([NH2+]CCO)cc2n1C(=O)OCC(=O)[O-] (optimized conformer: 71.45814830927979 kcal/mol)

>  <smiles>  (76) 
NC(=O)c1cc2ccc(NCCO)cc2n1C(=O)OCC(=O)O

>  <score_type>  (76) 
oracle

>  <origin>  (76) 
adg

>  <m_score__min__energy>  (76) 
-5.3300000000000001

>  <m_primary>  (76) 
energy

$$$$
78:0
     RDKit          3D

 34 35  0  0  0  0  0  0  0  0999 V2000
  148.8800  161.4150  130.7100 C   0  0  0  0  0  0  0  0  0  0  0  0
  149.7230  160.0220  129.8900 S   0  0  0  0  0  0  0  0  0  0  0  0
  149.6390  158.8710  131.3130 C   0  0  0  0  0  0  0  0  0  0  0  0
  149.0470  159.5550  132.5500 C   0  0  0  0  0  0  0  0  0  0  0  0
  147.7660  158.8990  132.9930 C   0  0  0  0  0  0  0  0  0  0  0  0
  146.5270  159.5680  132.8350 C   0  0  0  0  0  0  0  0  0  0  0  0
  145.3240  158.9490  133.2170 C   0  0  0  0  0  0  0  0  0  0  0  0
  145.3920  157.6590  133.7370 C   0  0  0  0  0  0  0  0  0  0  0  0
  144.3900  156.8350  134.1980 C   0  0  0  0  0  0  0  0  0  0  0  0
  145.0310  155.6640  134.6060 C   0  0  0  0  0  0  0  0  0  0  0  0
  144.3350  154.4660  135.1290 C   0  0  0  0  0  0  0  0  0  0  0  0
  144.5240  154.0360  136.4780 N   0  0  0  0  0  0  0  0  0  0  0  0
  143.5500  153.8180  134.3850 O   0  0  0  0  0  0  0  0  0  0  0  0
  146.3730  155.7620  134.3930 N   0  0  0  0  0  0  0  0  0  0  0  0
  147.3810  154.7910  134.7180 C   0  0  0  0  0  0  0  0  0  0  0  0
  148.0600  154.2650  133.7950 O   0  0  0  0  0  0  0  0  0  0  0  0
  147.6470  154.4150  136.1140 C   0  0  0  0  0  0  0  0  0  0  0  0
  148.4830  155.0600  136.8000 O   0  0  0  0  0  0  0  0  0  0  0  0
  146.9880  153.3300  136.6800 O   0  0  0  0  0  0  0  0  0  0  0  0
  146.5790  156.9900  133.8720 C   0  0  0  0  0  0  0  0  0  0  0  0
  147.7940  157.5910  133.5260 C   0  0  0  0  0  0  0  0  0  0  0  0
  148.9520  161.2961  131.8012 H   0  0  0  0  0  0  0  0  0  0  0  0
  149.3581  162.3597  130.4118 H   0  0  0  0  0  0  0  0  0  0  0  0
  147.8213  161.4297  130.4118 H   0  0  0  0  0  0  0  0  0  0  0  0
  149.0074  158.0121  131.0420 H   0  0  0  0  0  0  0  0  0  0  0  0
  150.6608  158.5428  131.5541 H   0  0  0  0  0  0  0  0  0  0  0  0
  149.7773  159.5003  133.3708 H   0  0  0  0  0  0  0  0  0  0  0  0
  148.8232  160.5998  132.2886 H   0  0  0  0  0  0  0  0  0  0  0  0
  146.5062  160.5820  132.4091 H   0  0  0  0  0  0  0  0  0  0  0  0
  144.3598  159.4671  133.1086 H   0  0  0  0  0  0  0  0  0  0  0  0
  143.3125  157.0532  134.2366 H   0  0  0  0  0  0  0  0  0  0  0  0
  145.2130  154.5000  137.1090 H   0  0  0  0  0  0  0  0  0  0  0  0
  143.9970  153.2100  136.8410 H   0  0  0  0  0  0  0  0  0  0  0  0
  148.7466  157.0588  133.6654 H   0  0  0  0  0  0  0  0  0  0  0  0
  1  2  1  0
  2  3  1  0
  3  4  1  0
  4  5  1  0
  5  6  2  0
  6  7  1  0
  7  8  2  0
  8  9  1  0
  9 10  2  0
 10 11  1  0
 11 12  1  0
 11 13  2  0
 10 14  1  0
 14 15  1  0
 15 16  2  0
 15 17  1  0
 17 18  2  0
 17 19  1  0
 14 20  1  0
 20 21  2  0
 21  5  1  0
 20  8  1  0
  1 22  1  0
  1 23  1  0
  1 24  1  0
  3 25  1  0
  3 26  1  0
  4 27  1  0
  4 28  1  0
  6 29  1  0
  7 30  1  0
  9 31  1  0
 12 32  1  0
 12 33  1  0
 21 34  1  0
M  CHG  1  19  -1
M  END
>  <UniqueID>  (77) 
77

>  <SMILES>  (77) 
CSCCc1ccc2cc(C(N)=O)n(C(=O)C(=O)[O-])c2c1

>  <Energy>  (77) 
67.30555948038632

>  <Genealogy>  (77) 
CSCCc1ccc2cc(C(N)=O)n(C(=O)C(=O)[O-])c2c1 (protonated)
CSCCc1ccc2cc(C(N)=O)n(C(=O)C(=O)[O-])c2c1 (3D coordinates assigned)
CSCCc1ccc2cc(C(N)=O)n(C(=O)C(=O)[O-])c2c1 (optimized conformer: 67.30555948038632 kcal/mol)

>  <smiles>  (77) 
CSCCc1ccc2cc(C(N)=O)n(C(=O)C(=O)O)c2c1

>  <score_type>  (77) 
oracle

>  <origin>  (77) 
adg

>  <m_score__min__energy>  (77) 
-6.9299999999999997

>  <m_primary>  (77) 
energy

$$$$
79:0
     RDKit          3D

 52 55  0  0  0  0  0  0  0  0999 V2000
  139.0930  155.9520  133.0730 N   0  0  0  0  0  0  0  0  0  0  0  0
  139.2710  157.2420  133.6680 C   0  0  0  0  0  0  0  0  0  0  0  0
  138.2800  157.8080  134.2080 O   0  0  0  0  0  0  0  0  0  0  0  0
  140.5870  157.9230  133.6330 C   0  0  0  0  0  0  0  0  0  0  0  0
  140.7640  159.3050  133.7170 C   0  0  0  0  0  0  0  0  0  0  0  0
  142.1280  159.5030  133.7100 C   0  0  0  0  0  0  0  0  0  0  0  0
  142.8640  160.6830  133.7420 C   0  0  0  0  0  0  0  0  0  0  0  0
  144.2640  160.5880  133.6630 C   0  0  0  0  0  0  0  0  0  0  0  0
  144.9000  159.3260  133.5490 C   0  0  0  0  0  0  0  0  0  0  0  0
  146.3330  159.2420  133.4410 N   0  0  0  0  0  0  0  0  0  0  0  0
  147.1380  160.4700  133.4160 C   0  0  0  0  0  0  0  0  0  0  0  0
  148.5970  160.1820  133.0200 C   0  0  0  0  0  0  0  0  0  0  0  0
  148.7070  159.2060  131.8060 C   0  0  0  0  0  0  0  0  0  0  0  0
  147.8330  157.9160  132.0210 C   0  0  0  0  0  0  0  0  0  0  0  0
  146.9990  157.9430  133.3060 C   0  0  0  0  0  0  0  0  0  0  0  0
  150.2100  158.8450  131.5920 C   0  0  0  0  0  0  0  0  0  0  0  0
  150.7290  159.8080  130.6400 N   0  0  0  0  0  0  0  0  0  0  0  0
  149.6320  160.4120  129.9900 C   0  0  0  0  0  0  0  0  0  0  0  0
  149.7710  161.2420  129.0560 O   0  0  0  0  0  0  0  0  0  0  0  0
  148.3230  159.9510  130.4940 C   0  0  0  0  0  0  0  0  0  0  0  0
  144.1170  158.1490  133.5390 C   0  0  0  0  0  0  0  0  0  0  0  0
  142.7270  158.2740  133.6300 C   0  0  0  0  0  0  0  0  0  0  0  0
  141.7980  157.2970  133.5870 N   0  0  0  0  0  0  0  0  0  0  0  0
  142.0560  155.8920  133.4610 C   0  0  0  0  0  0  0  0  0  0  0  0
  142.9380  155.4900  132.6530 O   0  0  0  0  0  0  0  0  0  0  0  0
  141.3140  154.9780  134.2150 O   0  0  0  0  0  0  0  0  0  0  0  0
  141.5170  153.5660  134.1560 C   0  0  0  0  0  0  0  0  0  0  0  0
  140.7240  152.9480  133.0020 C   0  0  0  0  0  0  0  0  0  0  0  0
  139.4700  153.5670  132.8800 O   0  0  0  0  0  0  0  0  0  0  0  0
  138.1590  155.4890  133.0940 H   0  0  0  0  0  0  0  0  0  0  0  0
  139.8810  155.4440  132.6170 H   0  0  0  0  0  0  0  0  0  0  0  0
  139.9799  160.0742  133.7763 H   0  0  0  0  0  0  0  0  0  0  0  0
  142.3658  161.6600  133.8265 H   0  0  0  0  0  0  0  0  0  0  0  0
  144.8734  161.5034  133.6899 H   0  0  0  0  0  0  0  0  0  0  0  0
  146.7013  161.1685  132.6870 H   0  0  0  0  0  0  0  0  0  0  0  0
  147.1348  160.9046  134.4265 H   0  0  0  0  0  0  0  0  0  0  0  0
  149.0841  161.1317  132.7540 H   0  0  0  0  0  0  0  0  0  0  0  0
  149.0875  159.7019  133.8796 H   0  0  0  0  0  0  0  0  0  0  0  0
  147.1492  157.8135  131.1655 H   0  0  0  0  0  0  0  0  0  0  0  0
  148.5282  157.0679  132.1073 H   0  0  0  0  0  0  0  0  0  0  0  0
  146.2410  157.1469  133.2657 H   0  0  0  0  0  0  0  0  0  0  0  0
  147.6602  157.7833  134.1705 H   0  0  0  0  0  0  0  0  0  0  0  0
  150.7579  158.9166  132.5431 H   0  0  0  0  0  0  0  0  0  0  0  0
  150.3249  157.8155  131.2218 H   0  0  0  0  0  0  0  0  0  0  0  0
  147.6555  160.8006  130.7007 H   0  0  0  0  0  0  0  0  0  0  0  0
  147.7757  159.3209  129.7774 H   0  0  0  0  0  0  0  0  0  0  0  0
  144.5896  157.1587  133.4615 H   0  0  0  0  0  0  0  0  0  0  0  0
  142.5876  153.3620  134.0072 H   0  0  0  0  0  0  0  0  0  0  0  0
  141.1686  153.1211  135.0998 H   0  0  0  0  0  0  0  0  0  0  0  0
  141.2855  153.0801  132.0654 H   0  0  0  0  0  0  0  0  0  0  0  0
  140.5739  151.8777  133.2066 H   0  0  0  0  0  0  0  0  0  0  0  0
  139.3580  154.1400  133.6810 H   0  0  0  0  0  0  0  0  0  0  0  0
  1  2  1  0
  2  3  2  0
  2  4  1  0
  4  5  2  0
  5  6  1  0
  6  7  2  0
  7  8  1  0
  8  9  2  0
  9 10  1  0
 10 11  1  0
 11 12  1  0
 12 13  1  0
 13 14  1  0
 14 15  1  0
 13 16  1  0
 16 17  1  0
 17 18  1  0
 18 19  2  0
 18 20  1  0
  9 21  1  0
 21 22  2  0
 22 23  1  0
 23 24  1  0
 24 25  2  0
 24 26  1  0
 26 27  1  0
 27 28  1  0
 28 29  1  0
 23  4  1  0
 22  6  1  0
 15 10  1  0
 20 13  1  0
  1 30  1  0
  1 31  1  0
  5 32  1  0
  7 33  1  0
  8 34  1  0
 11 35  1  0
 11 36  1  0
 12 37  1  0
 12 38  1  0
 14 39  1  0
 14 40  1  0
 15 41  1  0
 15 42  1  0
 16 43  1  0
 16 44  1  0
 20 45  1  0
 20 46  1  0
 21 47  1  0
 27 48  1  0
 27 49  1  0
 28 50  1  0
 28 51  1  0
 29 52  1  0
M  CHG  1  17  -1
M  END
>  <UniqueID>  (78) 
78

>  <SMILES>  (78) 
NC(=O)c1cc2ccc(N3CCC4(CC3)C[N-]C(=O)C4)cc2n1C(=O)OCCO

>  <Energy>  (78) 
109.67355093642757

>  <Genealogy>  (78) 
NC(=O)c1cc2ccc(N3CCC4(CC3)C[N-]C(=O)C4)cc2n1C(=O)OCCO (protonated)
NC(=O)c1cc2ccc(N3CCC4(CC3)C[N-]C(=O)C4)cc2n1C(=O)OCCO (3D coordinates assigned)
NC(=O)c1cc2ccc(N3CCC4(CC3)C[N-]C(=O)C4)cc2n1C(=O)OCCO (nonaromatic ring conformer: 109.67355093642757 kcal/mol)

>  <smiles>  (78) 
NC(=O)c1cc2ccc(N3CCC4(CC3)CNC(=O)C4)cc2n1C(=O)OCCO

>  <score_type>  (78) 
oracle

>  <origin>  (78) 
adg

>  <m_score__min__energy>  (78) 
-8.3200000000000003

>  <m_primary>  (78) 
energy

$$$$
80:0
     RDKit          3D

 46 47  0  0  0  0  0  0  0  0999 V2000
  145.2466  155.3452  135.4125 H   0  0  0  0  0  0  0  0  0  0  0  0
  146.1620  155.6630  134.8920 C   0  0  0  0  0  0  0  0  0  0  0  0
  147.0799  155.8609  135.4649 H   0  0  0  0  0  0  0  0  0  0  0  0
  146.1590  155.8080  133.5700 C   0  0  0  0  0  0  0  0  0  0  0  0
  147.6730  156.3290  132.7510 S   0  0  0  0  0  0  0  0  0  0  0  0
  148.1360  157.4920  134.0390 C   0  0  0  0  0  0  0  0  0  0  0  0
  148.0278  157.1791  135.0880 H   0  0  0  0  0  0  0  0  0  0  0  0
  148.6060  158.7200  133.7880 C   0  0  0  0  0  0  0  0  0  0  0  0
  148.7813  159.3877  134.6444 H   0  0  0  0  0  0  0  0  0  0  0  0
  148.9060  159.2400  132.4320 C   0  0  0  0  0  0  0  0  0  0  0  0
  148.0770  160.2940  131.8000 C   0  0  0  0  0  0  0  0  0  0  0  0
  146.8510  160.0940  131.5790 O   0  0  0  0  0  0  0  0  0  0  0  0
  148.6610  161.5130  131.4410 O   0  0  0  0  0  0  0  0  0  0  0  0
  149.5580  161.6390  130.3420 C   0  0  0  0  0  0  0  0  0  0  0  0
  150.5814  161.7828  130.7187 H   0  0  0  0  0  0  0  0  0  0  0  0
  149.5176  160.7264  129.7292 H   0  0  0  0  0  0  0  0  0  0  0  0
  149.2677  162.5052  129.7292 H   0  0  0  0  0  0  0  0  0  0  0  0
  149.9860  158.7670  131.8000 C   0  0  0  0  0  0  0  0  0  0  0  0
  150.2375  159.1313  130.7930 H   0  0  0  0  0  0  0  0  0  0  0  0
  150.6225  158.0138  132.2873 H   0  0  0  0  0  0  0  0  0  0  0  0
  144.9510  155.4840  132.7910 C   0  0  0  0  0  0  0  0  0  0  0  0
  145.0210  154.6590  131.8440 O   0  0  0  0  0  0  0  0  0  0  0  0
  143.6990  156.1190  133.0900 N   0  0  0  0  0  0  0  0  0  0  0  0
  142.4910  155.5220  133.2950 C   0  0  0  0  0  0  0  0  0  0  0  0
  142.2110  154.0790  133.1210 C   0  0  0  0  0  0  0  0  0  0  0  0
  141.6030  153.4420  134.0200 O   0  0  0  0  0  0  0  0  0  0  0  0
  142.6420  153.3820  131.9500 N   0  0  0  0  0  0  0  0  0  0  0  0
  143.1210  153.8740  131.1660 H   0  0  0  0  0  0  0  0  0  0  0  0
  142.4500  152.3600  131.8480 H   0  0  0  0  0  0  0  0  0  0  0  0
  141.5340  156.4810  133.6350 C   0  0  0  0  0  0  0  0  0  0  0  0
  140.4698  156.3109  133.8555 H   0  0  0  0  0  0  0  0  0  0  0  0
  142.2040  157.6850  133.6360 C   0  0  0  0  0  0  0  0  0  0  0  0
  141.7450  158.9650  133.9260 C   0  0  0  0  0  0  0  0  0  0  0  0
  140.6902  159.1450  134.1811 H   0  0  0  0  0  0  0  0  0  0  0  0
  142.6710  160.0220  133.8830 C   0  0  0  0  0  0  0  0  0  0  0  0
  142.3375  161.0464  134.1050 H   0  0  0  0  0  0  0  0  0  0  0  0
  144.0330  159.7820  133.5560 C   0  0  0  0  0  0  0  0  0  0  0  0
  145.0000  160.8480  133.5140 N   0  0  0  0  0  0  0  0  0  0  0  0
  145.6270  160.9290  132.6820 H   0  0  0  0  0  0  0  0  0  0  0  0
  145.1700  161.8250  134.5870 C   0  0  0  0  0  0  0  0  0  0  0  0
  145.0821  161.3198  135.5602 H   0  0  0  0  0  0  0  0  0  0  0  0
  146.1628  162.2914  134.5043 H   0  0  0  0  0  0  0  0  0  0  0  0
  144.3931  162.5993  134.5043 H   0  0  0  0  0  0  0  0  0  0  0  0
  144.4540  158.4660  133.2650 C   0  0  0  0  0  0  0  0  0  0  0  0
  145.5037  158.2548  133.0130 H   0  0  0  0  0  0  0  0  0  0  0  0
  143.5080  157.4370  133.3040 C   0  0  0  0  0  0  0  0  0  0  0  0
  1  2  1  0
  2  3  1  0
  2  4  2  0
  4  5  1  0
  5  6  1  0
  6  7  1  0
  6  8  2  0
  8  9  1  0
  8 10  1  0
 10 11  1  0
 11 12  2  0
 11 13  1  0
 13 14  1  0
 14 15  1  0
 14 16  1  0
 14 17  1  0
 10 18  2  0
 18 19  1  0
 18 20  1  0
  4 21  1  0
 21 22  2  0
 21 23  1  0
 23 24  1  0
 24 25  1  0
 25 26  2  0
 25 27  1  0
 27 28  1  0
 27 29  1  0
 24 30  2  0
 30 31  1  0
 30 32  1  0
 32 33  2  0
 33 34  1  0
 33 35  1  0
 35 36  1  0
 35 37  2  0
 37 38  1  0
 38 39  1  0
 38 40  1  0
 40 41  1  0
 40 42  1  0
 40 43  1  0
 37 44  1  0
 44 45  1  0
 44 46  2  0
 46 23  1  0
 46 32  1  0
M  END
>  <UniqueID>  (79) 
79

>  <SMILES>  (79) 
C=C(/C=C\SC(=C)C(=O)n1c(C(N)=O)cc2ccc(NC)cc21)C(=O)OC

>  <Energy>  (79) 
87.87379286837835

>  <Genealogy>  (79) 
C=C(/C=C\SC(=C)C(=O)n1c(C(N)=O)cc2ccc(NC)cc21)C(=O)OC (cis-trans isomerization)
C=C(/C=C\SC(=C)C(=O)n1c(C(N)=O)cc2ccc(NC)cc21)C(=O)OC (3D coordinates assigned)
C=C(/C=C\SC(=C)C(=O)n1c(C(N)=O)cc2ccc(NC)cc21)C(=O)OC (optimized conformer: 87.87379286837835 kcal/mol)

>  <smiles>  (79) 
C=C(/C=C\SC(=C)C(=O)n1c(C(N)=O)cc2ccc(NC)cc21)C(=O)OC

>  <score_type>  (79) 
oracle

>  <origin>  (79) 
adg

>  <m_score__min__energy>  (79) 
-7.6900000000000004

>  <m_primary>  (79) 
energy

$$$$
81:0
     RDKit          3D

 41 43  0  0  0  0  0  0  0  0999 V2000
  149.6090  158.8970  132.1460 C   0  0  0  0  0  0  0  0  0  0  0  0
  148.1630  158.9030  132.5450 C   0  0  0  0  0  0  0  0  0  0  0  0
  147.3960  160.0860  132.4090 C   0  0  0  0  0  0  0  0  0  0  0  0
  146.0280  160.0920  132.7320 C   0  0  0  0  0  0  0  0  0  0  0  0
  145.4580  158.9040  133.1800 C   0  0  0  0  0  0  0  0  0  0  0  0
  144.1570  158.6240  133.5310 C   0  0  0  0  0  0  0  0  0  0  0  0
  144.1510  157.2750  133.8820 C   0  0  0  0  0  0  0  0  0  0  0  0
  142.9660  156.5680  134.4170 C   0  0  0  0  0  0  0  0  0  0  0  0
  142.1810  155.7210  133.5780 N   0  0  0  0  0  0  0  0  0  0  0  0
  142.6190  156.7350  135.6160 O   0  0  0  0  0  0  0  0  0  0  0  0
  145.3970  156.7410  133.7500 N   0  0  0  0  0  0  0  0  0  0  0  0
  145.7830  155.3700  133.9450 C   0  0  0  0  0  0  0  0  0  0  0  0
  146.0260  154.9470  135.1090 O   0  0  0  0  0  0  0  0  0  0  0  0
  145.8960  154.5220  132.8360 O   0  0  0  0  0  0  0  0  0  0  0  0
  144.8220  154.0070  132.1020 C   0  0  0  0  0  0  0  0  0  0  0  0
  144.0010  154.7720  131.5240 O   0  0  0  0  0  0  0  0  0  0  0  0
  144.6780  152.6190  132.0100 O   0  0  0  0  0  0  0  0  0  0  0  0
  143.9660  151.8390  132.9680 C   0  0  0  0  0  0  0  0  0  0  0  0
  142.5040  152.1590  132.9270 C   0  0  0  0  0  0  0  0  0  0  0  0
  142.0020  153.3670  133.0260 O   0  0  0  0  0  0  0  0  0  0  0  0
  140.6990  153.2220  132.9430 C   0  0  0  0  0  0  0  0  0  0  0  0
  139.8850  154.1800  132.9990 O   0  0  0  0  0  0  0  0  0  0  0  0
  140.3370  151.9670  132.7940 O   0  0  0  0  0  0  0  0  0  0  0  0
  141.4510  151.2730  132.7840 C   0  0  0  0  0  0  0  0  0  0  0  0
  141.5280  149.7920  132.6140 C   0  0  0  0  0  0  0  0  0  0  0  0
  146.1880  157.7510  133.3190 C   0  0  0  0  0  0  0  0  0  0  0  0
  147.5480  157.7120  132.9880 C   0  0  0  0  0  0  0  0  0  0  0  0
  150.2383  158.8944  133.0482 H   0  0  0  0  0  0  0  0  0  0  0  0
  149.8208  157.9980  131.5486 H   0  0  0  0  0  0  0  0  0  0  0  0
  149.8282  159.7942  131.5486 H   0  0  0  0  0  0  0  0  0  0  0  0
  147.8750  161.0079  132.0475 H   0  0  0  0  0  0  0  0  0  0  0  0
  145.4264  161.0076  132.6337 H   0  0  0  0  0  0  0  0  0  0  0  0
  143.3032  159.3175  133.5339 H   0  0  0  0  0  0  0  0  0  0  0  0
  142.4650  155.5180  132.5940 H   0  0  0  0  0  0  0  0  0  0  0  0
  141.3250  155.2560  133.9550 H   0  0  0  0  0  0  0  0  0  0  0  0
  144.1088  150.7718  132.7431 H   0  0  0  0  0  0  0  0  0  0  0  0
  144.3517  152.0716  133.9716 H   0  0  0  0  0  0  0  0  0  0  0  0
  141.5530  149.3103  133.6026 H   0  0  0  0  0  0  0  0  0  0  0  0
  140.6469  149.4406  132.0571 H   0  0  0  0  0  0  0  0  0  0  0  0
  142.4408  149.5338  132.0571 H   0  0  0  0  0  0  0  0  0  0  0  0
  148.1223  156.7775  133.0710 H   0  0  0  0  0  0  0  0  0  0  0  0
  1  2  1  0
  2  3  2  0
  3  4  1  0
  4  5  2  0
  5  6  1  0
  6  7  2  0
  7  8  1  0
  8  9  1  0
  8 10  2  0
  7 11  1  0
 11 12  1  0
 12 13  2  0
 12 14  1  0
 14 15  1  0
 15 16  2  0
 15 17  1  0
 17 18  1  0
 18 19  1  0
 19 20  1  0
 20 21  1  0
 21 22  2  0
 21 23  1  0
 23 24  1  0
 24 25  1  0
 11 26  1  0
 26 27  2  0
 27  2  1  0
 26  5  1  0
 24 19  2  0
  1 28  1  0
  1 29  1  0
  1 30  1  0
  3 31  1  0
  4 32  1  0
  6 33  1  0
  9 34  1  0
  9 35  1  0
 18 36  1  0
 18 37  1  0
 25 38  1  0
 25 39  1  0
 25 40  1  0
 27 41  1  0
M  END
>  <UniqueID>  (80) 
80

>  <SMILES>  (80) 
Cc1ccc2cc(C(N)=O)n(C(=O)OC(=O)OCc3oc(=O)oc3C)c2c1

>  <Energy>  (80) 
111.48844104300561

>  <Genealogy>  (80) 
Cc1ccc2cc(C(N)=O)n(C(=O)OC(=O)OCc3oc(=O)oc3C)c2c1 (3D coordinates assigned)
Cc1ccc2cc(C(N)=O)n(C(=O)OC(=O)OCc3oc(=O)oc3C)c2c1 (optimized conformer: 111.48844104300561 kcal/mol)

>  <smiles>  (80) 
Cc1ccc2cc(C(N)=O)n(C(=O)OC(=O)OCc3oc(=O)oc3C)c2c1

>  <score_type>  (80) 
oracle

>  <origin>  (80) 
adg

>  <m_score__min__energy>  (80) 
-7.0599999999999996

>  <m_primary>  (80) 
energy

$$$$
82:0
     RDKit          3D

 44 46  0  0  0  0  0  0  0  0999 V2000
  140.5640  153.6780  132.9830 C   0  0  0  0  0  0  0  0  0  0  0  0
  140.9320  155.0210  133.4310 N   0  0  0  0  0  0  0  0  0  0  0  0
  139.9040  156.0080  133.7850 C   0  0  0  0  0  0  0  0  0  0  0  0
  139.6520  156.9830  132.6370 C   0  0  0  0  0  0  0  0  0  0  0  0
  139.1610  158.1950  133.1390 O   0  0  0  0  0  0  0  0  0  0  0  0
  142.3050  155.4250  133.3400 C   0  0  0  0  0  0  0  0  0  0  0  0
  143.3150  154.4630  133.1000 C   0  0  0  0  0  0  0  0  0  0  0  0
  144.6670  154.8450  133.0380 C   0  0  0  0  0  0  0  0  0  0  0  0
  144.9690  156.1940  133.2020 C   0  0  0  0  0  0  0  0  0  0  0  0
  146.1870  156.8410  133.1960 C   0  0  0  0  0  0  0  0  0  0  0  0
  145.8900  158.1910  133.3980 C   0  0  0  0  0  0  0  0  0  0  0  0
  146.8920  159.2820  133.4060 C   0  0  0  0  0  0  0  0  0  0  0  0
  146.7000  160.4610  132.6210 N   0  0  0  0  0  0  0  0  0  0  0  0
  147.9290  159.1800  134.1140 O   0  0  0  0  0  0  0  0  0  0  0  0
  144.5440  158.3630  133.5240 N   0  0  0  0  0  0  0  0  0  0  0  0
  143.8300  159.5880  133.7410 C   0  0  0  0  0  0  0  0  0  0  0  0
  144.2980  160.6680  133.2930 O   0  0  0  0  0  0  0  0  0  0  0  0
  142.5380  159.5860  134.4430 C   0  0  0  0  0  0  0  0  0  0  0  0
  141.4280  159.8550  133.8480 N   0  0  0  0  0  0  0  0  0  0  0  0
  140.3910  159.7170  134.7300 O   0  0  0  0  0  0  0  0  0  0  0  0
  140.8190  159.3360  136.0280 C   0  0  1  0  0  0  0  0  0  0  0  0
  140.1640  158.0480  136.4290 C   0  0  0  0  0  0  0  0  0  0  0  0
  139.0990  157.6790  135.8650 O   0  0  0  0  0  0  0  0  0  0  0  0
  140.7180  157.2670  137.4380 O   0  0  0  0  0  0  0  0  0  0  0  0
  142.3440  159.1950  135.8710 C   0  0  0  0  0  0  0  0  0  0  0  0
  143.9970  157.1380  133.4020 C   0  0  0  0  0  0  0  0  0  0  0  0
  142.6470  156.7850  133.4860 C   0  0  0  0  0  0  0  0  0  0  0  0
  140.3878  153.0350  133.8580 H   0  0  0  0  0  0  0  0  0  0  0  0
  139.6475  153.7319  132.3771 H   0  0  0  0  0  0  0  0  0  0  0  0
  141.3799  153.2572  132.3771 H   0  0  0  0  0  0  0  0  0  0  0  0
  138.9673  155.4812  134.0199 H   0  0  0  0  0  0  0  0  0  0  0  0
  140.2574  156.5804  134.6553 H   0  0  0  0  0  0  0  0  0  0  0  0
  140.5946  157.1658  132.1003 H   0  0  0  0  0  0  0  0  0  0  0  0
  138.9106  156.5491  131.9499 H   0  0  0  0  0  0  0  0  0  0  0  0
  139.7360  158.4260  133.9160 H   0  0  0  0  0  0  0  0  0  0  0  0
  143.0400  153.4071  132.9607 H   0  0  0  0  0  0  0  0  0  0  0  0
  145.4599  154.1023  132.8656 H   0  0  0  0  0  0  0  0  0  0  0  0
  147.1811  156.3899  133.0609 H   0  0  0  0  0  0  0  0  0  0  0  0
  145.9030  160.5490  131.9540 H   0  0  0  0  0  0  0  0  0  0  0  0
  147.3920  161.2420  132.6750 H   0  0  0  0  0  0  0  0  0  0  0  0
  140.5534  160.0544  136.8175 H   0  0  0  0  0  0  0  0  0  0  0  0
  142.8815  159.8739  136.5493 H   0  0  0  0  0  0  0  0  0  0  0  0
  142.7277  158.1937  136.1162 H   0  0  0  0  0  0  0  0  0  0  0  0
  141.8732  157.5470  133.6611 H   0  0  0  0  0  0  0  0  0  0  0  0
  1  2  1  0
  2  3  1  0
  3  4  1  0
  4  5  1  0
  2  6  1  0
  6  7  2  0
  7  8  1  0
  8  9  2  0
  9 10  1  0
 10 11  2  0
 11 12  1  0
 12 13  1  0
 12 14  2  0
 11 15  1  0
 15 16  1  0
 16 17  2  0
 16 18  1  0
 18 19  2  0
 19 20  1  0
 20 21  1  0
 21 22  1  0
 22 23  2  0
 22 24  1  0
 21 25  1  0
 15 26  1  0
 26 27  2  0
 27  6  1  0
 26  9  1  0
 25 18  1  0
  1 28  1  0
  1 29  1  0
  1 30  1  0
  3 31  1  0
  3 32  1  0
  4 33  1  0
  4 34  1  0
  5 35  1  0
  7 36  1  0
  8 37  1  0
 10 38  1  0
 13 39  1  0
 13 40  1  0
 21 41  1  1
 25 42  1  0
 25 43  1  0
 27 44  1  0
M  CHG  1  24  -1
M  END
>  <UniqueID>  (81) 
81

>  <SMILES>  (81) 
CN(CCO)c1ccc2cc(C(N)=O)n(C(=O)C3=NO[C@@H](C(=O)[O-])C3)c2c1

>  <Energy>  (81) 
98.23900408537189

>  <Genealogy>  (81) 
CN(CCO)c1ccc2cc(C(N)=O)n(C(=O)C3=NOC(C(=O)[O-])C3)c2c1 (protonated)
CN(CCO)c1ccc2cc(C(N)=O)n(C(=O)C3=NO[C@@H](C(=O)[O-])C3)c2c1 (chirality)
CN(CCO)c1ccc2cc(C(N)=O)n(C(=O)C3=NO[C@@H](C(=O)[O-])C3)c2c1 (3D coordinates assigned)
CN(CCO)c1ccc2cc(C(N)=O)n(C(=O)C3=NO[C@@H](C(=O)[O-])C3)c2c1 (nonaromatic ring conformer: 98.23900408537189 kcal/mol)

>  <smiles>  (81) 
CN(CCO)c1ccc2cc(C(N)=O)n(C(=O)C3=NOC(C(=O)O)C3)c2c1

>  <score_type>  (81) 
oracle

>  <origin>  (81) 
adg

>  <m_score__min__energy>  (81) 
-7.3200000000000003

>  <m_primary>  (81) 
energy

$$$$
83:0
     RDKit          3D

 43 44  0  0  0  0  0  0  0  0999 V2000
  148.9700  161.7090  130.6690 C   0  0  0  0  0  0  0  0  0  0  0  0
  148.7890  160.3880  131.3560 C   0  0  0  0  0  0  0  0  0  0  0  0
  149.7990  159.3990  131.2680 C   0  0  0  0  0  0  0  0  0  0  0  0
  149.6230  158.1410  131.8660 C   0  0  0  0  0  0  0  0  0  0  0  0
  148.4270  157.8990  132.5360 C   0  0  0  0  0  0  0  0  0  0  0  0
  147.9850  156.7650  133.1770 C   0  0  0  0  0  0  0  0  0  0  0  0
  146.7130  157.0780  133.6530 C   0  0  0  0  0  0  0  0  0  0  0  0
  145.9060  156.1600  134.4810 C   0  0  0  0  0  0  0  0  0  0  0  0
  144.6430  155.7000  134.0050 N   0  0  0  0  0  0  0  0  0  0  0  0
  146.3330  155.7460  135.5910 O   0  0  0  0  0  0  0  0  0  0  0  0
  146.3780  158.3560  133.3110 N   0  0  0  0  0  0  0  0  0  0  0  0
  145.1420  159.0430  133.5620 C   0  0  0  0  0  0  0  0  0  0  0  0
  145.0690  160.2910  133.4000 O   0  0  0  0  0  0  0  0  0  0  0  0
  144.0280  158.3240  134.0090 O   0  0  0  0  0  0  0  0  0  0  0  0
  142.9390  157.9750  133.1610 C   0  0  0  0  0  0  0  0  0  0  0  0
  141.9210  157.3110  133.9080 O   0  0  0  0  0  0  0  0  0  0  0  0
  141.8580  157.3460  135.3060 C   0  0  0  0  0  0  0  0  0  0  0  0
  142.4770  156.4810  135.9880 O   0  0  0  0  0  0  0  0  0  0  0  0
  140.9780  158.3760  135.9850 C   0  0  0  0  0  0  0  0  0  0  0  0
  139.4870  157.9960  135.8600 C   0  0  0  0  0  0  0  0  0  0  0  0
  141.3440  158.4650  137.4800 C   0  0  0  0  0  0  0  0  0  0  0  0
  141.2140  159.7420  135.3170 C   0  0  0  0  0  0  0  0  0  0  0  0
  147.4390  158.8450  132.6320 C   0  0  0  0  0  0  0  0  0  0  0  0
  147.5820  160.1030  132.0300 C   0  0  0  0  0  0  0  0  0  0  0  0
  149.0787  162.5025  131.4230 H   0  0  0  0  0  0  0  0  0  0  0  0
  149.8718  161.6747  130.0401 H   0  0  0  0  0  0  0  0  0  0  0  0
  148.0922  161.9185  130.0401 H   0  0  0  0  0  0  0  0  0  0  0  0
  150.7305  159.6187  130.7258 H   0  0  0  0  0  0  0  0  0  0  0  0
  150.4059  157.3705  131.8069 H   0  0  0  0  0  0  0  0  0  0  0  0
  148.5223  155.8118  133.2901 H   0  0  0  0  0  0  0  0  0  0  0  0
  143.7600  156.1920  134.2640 H   0  0  0  0  0  0  0  0  0  0  0  0
  142.5219  158.8885  132.7120 H   0  0  0  0  0  0  0  0  0  0  0  0
  143.3023  157.2989  132.3730 H   0  0  0  0  0  0  0  0  0  0  0  0
  139.0515  157.8850  136.8640 H   0  0  0  0  0  0  0  0  0  0  0  0
  138.9517  158.7864  135.3135 H   0  0  0  0  0  0  0  0  0  0  0  0
  139.3954  157.0458  135.3135 H   0  0  0  0  0  0  0  0  0  0  0  0
  140.4538  158.2486  138.0889 H   0  0  0  0  0  0  0  0  0  0  0  0
  142.1318  157.7322  137.7089 H   0  0  0  0  0  0  0  0  0  0  0  0
  141.7074  159.4777  137.7089 H   0  0  0  0  0  0  0  0  0  0  0  0
  141.3469  160.5111  136.0921 H   0  0  0  0  0  0  0  0  0  0  0  0
  142.1169  159.6928  134.6907 H   0  0  0  0  0  0  0  0  0  0  0  0
  140.3469  159.9986  134.6907 H   0  0  0  0  0  0  0  0  0  0  0  0
  146.7747  160.8484  132.0815 H   0  0  0  0  0  0  0  0  0  0  0  0
  1  2  1  0
  2  3  2  0
  3  4  1  0
  4  5  2  0
  5  6  1  0
  6  7  2  0
  7  8  1  0
  8  9  1  0
  8 10  2  0
  7 11  1  0
 11 12  1  0
 12 13  2  0
 12 14  1  0
 14 15  1  0
 15 16  1  0
 16 17  1  0
 17 18  2  0
 17 19  1  0
 19 20  1  0
 19 21  1  0
 19 22  1  0
 11 23  1  0
 23 24  2  0
 24  2  1  0
 23  5  1  0
  1 25  1  0
  1 26  1  0
  1 27  1  0
  3 28  1  0
  4 29  1  0
  6 30  1  0
  9 31  1  0
 15 32  1  0
 15 33  1  0
 20 34  1  0
 20 35  1  0
 20 36  1  0
 21 37  1  0
 21 38  1  0
 21 39  1  0
 22 40  1  0
 22 41  1  0
 22 42  1  0
 24 43  1  0
M  CHG  1   9  -1
M  END
>  <UniqueID>  (82) 
82

>  <SMILES>  (82) 
Cc1ccc2cc(C([NH-])=O)n(C(=O)OCOC(=O)C(C)(C)C)c2c1

>  <Energy>  (82) 
72.40204628087267

>  <Genealogy>  (82) 
Cc1ccc2cc(C([NH-])=O)n(C(=O)OCOC(=O)C(C)(C)C)c2c1 (protonated)
Cc1ccc2cc(C([NH-])=O)n(C(=O)OCOC(=O)C(C)(C)C)c2c1 (3D coordinates assigned)
Cc1ccc2cc(C([NH-])=O)n(C(=O)OCOC(=O)C(C)(C)C)c2c1 (optimized conformer: 72.40204628087267 kcal/mol)

>  <smiles>  (82) 
Cc1ccc2cc(C(N)=O)n(C(=O)OCOC(=O)C(C)(C)C)c2c1

>  <score_type>  (82) 
oracle

>  <origin>  (82) 
adg

>  <m_score__min__energy>  (82) 
-6.6900000000000004

>  <m_primary>  (82) 
energy

$$$$
84:0
     RDKit          3D

 31 32  0  0  0  0  0  0  0  0999 V2000
  146.2900  152.8000  133.0450 N   0  0  0  0  0  0  0  0  0  0  0  0
  146.2730  153.9090  133.9460 C   0  0  0  0  0  0  0  0  0  0  0  0
  145.9550  153.7200  135.1500 O   0  0  0  0  0  0  0  0  0  0  0  0
  146.6810  155.2580  133.5060 C   0  0  0  0  0  0  0  0  0  0  0  0
  145.8660  156.3800  133.6240 C   0  0  0  0  0  0  0  0  0  0  0  0
  146.6270  157.4310  133.1660 C   0  0  0  0  0  0  0  0  0  0  0  0
  146.3060  158.7800  133.0440 C   0  0  0  0  0  0  0  0  0  0  0  0
  147.2740  159.6400  132.5000 C   0  0  0  0  0  0  0  0  0  0  0  0
  148.5330  159.1410  132.0850 C   0  0  0  0  0  0  0  0  0  0  0  0
  149.5450  160.0760  131.4880 C   0  0  0  0  0  0  0  0  0  0  0  0
  150.0530  159.5300  130.3230 F   0  0  0  0  0  0  0  0  0  0  0  0
  148.9470  161.2900  131.2010 F   0  0  0  0  0  0  0  0  0  0  0  0
  148.8220  157.7650  132.2210 C   0  0  0  0  0  0  0  0  0  0  0  0
  147.8480  156.9320  132.7860 C   0  0  0  0  0  0  0  0  0  0  0  0
  147.8950  155.5950  132.9870 N   0  0  0  0  0  0  0  0  0  0  0  0
  148.9550  154.7040  132.6040 C   0  0  0  0  0  0  0  0  0  0  0  0
  150.0680  155.1670  132.2360 O   0  0  0  0  0  0  0  0  0  0  0  0
  148.7450  153.3200  132.6420 O   0  0  0  0  0  0  0  0  0  0  0  0
  149.5090  152.3880  131.8820 C   0  0  0  0  0  0  0  0  0  0  0  0
  148.9030  151.0240  131.9650 C   0  0  0  0  0  0  0  0  0  0  0  0
  149.6390  150.0030  131.9300 O   0  0  0  0  0  0  0  0  0  0  0  0
  147.5290  150.8780  132.1080 O   0  0  0  0  0  0  0  0  0  0  0  0
  145.9580  151.8630  133.3620 H   0  0  0  0  0  0  0  0  0  0  0  0
  146.7040  152.8870  132.0910 H   0  0  0  0  0  0  0  0  0  0  0  0
  144.8339  156.4184  134.0025 H   0  0  0  0  0  0  0  0  0  0  0  0
  145.3247  159.1606  133.3637 H   0  0  0  0  0  0  0  0  0  0  0  0
  147.0521  160.7123  132.3951 H   0  0  0  0  0  0  0  0  0  0  0  0
  150.3616  160.2305  132.2086 H   0  0  0  0  0  0  0  0  0  0  0  0
  149.7889  157.3574  131.8910 H   0  0  0  0  0  0  0  0  0  0  0  0
  149.5320  152.7106  130.8306 H   0  0  0  0  0  0  0  0  0  0  0  0
  150.5302  152.3492  132.2889 H   0  0  0  0  0  0  0  0  0  0  0  0
  1  2  1  0
  2  3  2  0
  2  4  1  0
  4  5  2  0
  5  6  1  0
  6  7  2  0
  7  8  1  0
  8  9  2  0
  9 10  1  0
 10 11  1  0
 10 12  1  0
  9 13  1  0
 13 14  2  0
 14 15  1  0
 15 16  1  0
 16 17  2  0
 16 18  1  0
 18 19  1  0
 19 20  1  0
 20 21  2  0
 20 22  1  0
 15  4  1  0
 14  6  1  0
  1 23  1  0
  1 24  1  0
  5 25  1  0
  7 26  1  0
  8 27  1  0
 10 28  1  0
 13 29  1  0
 19 30  1  0
 19 31  1  0
M  CHG  1  22  -1
M  END
>  <UniqueID>  (83) 
83

>  <SMILES>  (83) 
NC(=O)c1cc2ccc(C(F)F)cc2n1C(=O)OCC(=O)[O-]

>  <Energy>  (83) 
68.03655154688738

>  <Genealogy>  (83) 
NC(=O)c1cc2ccc(C(F)F)cc2n1C(=O)OCC(=O)[O-] (protonated)
NC(=O)c1cc2ccc(C(F)F)cc2n1C(=O)OCC(=O)[O-] (3D coordinates assigned)
NC(=O)c1cc2ccc(C(F)F)cc2n1C(=O)OCC(=O)[O-] (optimized conformer: 68.03655154688738 kcal/mol)

>  <smiles>  (83) 
NC(=O)c1cc2ccc(C(F)F)cc2n1C(=O)OCC(=O)O

>  <score_type>  (83) 
oracle

>  <origin>  (83) 
adg

>  <m_score__min__energy>  (83) 
-5.7999999999999998

>  <m_primary>  (83) 
energy

$$$$
85:0
     RDKit          3D

 61 64  0  0  0  0  0  0  0  0999 V2000
  149.3910  159.3540  133.3500 N   0  0  0  0  0  0  0  0  0  0  0  0
  148.1470  159.8750  132.8900 C   0  0  0  0  0  0  0  0  0  0  0  0
  148.1350  160.9380  132.2120 O   0  0  0  0  0  0  0  0  0  0  0  0
  146.8810  159.1570  133.1460 C   0  0  0  0  0  0  0  0  0  0  0  0
  145.6410  159.7880  133.2110 C   0  0  0  0  0  0  0  0  0  0  0  0
  144.7240  158.7750  133.3700 C   0  0  0  0  0  0  0  0  0  0  0  0
  143.3420  158.8350  133.5100 C   0  0  0  0  0  0  0  0  0  0  0  0
  142.6460  157.6290  133.6970 C   0  0  0  0  0  0  0  0  0  0  0  0
  143.3380  156.3920  133.7450 C   0  0  0  0  0  0  0  0  0  0  0  0
  142.6160  155.1640  133.9680 N   0  0  0  0  0  0  0  0  0  0  0  0
  141.2780  154.9870  133.3810 C   0  0  0  0  0  0  0  0  0  0  0  0
  140.8680  153.5060  133.3620 C   0  0  0  0  0  0  0  0  0  0  0  0
  142.0710  152.6350  132.9250 C   0  0  0  0  0  0  0  0  0  0  0  0
  141.7410  151.2020  132.6990 N   0  0  0  0  0  0  0  0  0  0  0  0
  141.0240  150.5910  133.8300 C   0  0  0  0  0  0  0  0  0  0  0  0
  140.3690  149.2650  133.3860 C   0  0  0  0  0  0  0  0  0  0  0  0
  140.9890  148.6820  132.1710 N   0  0  0  0  0  0  0  0  0  0  0  0
  140.3510  149.1460  130.9210 C   0  0  0  0  0  0  0  0  0  0  0  0
  139.4590  148.0780  130.3700 C   0  0  0  0  0  0  0  0  0  0  0  0
  139.6920  146.8670  130.6180 O   0  0  0  0  0  0  0  0  0  0  0  0
  138.3470  148.4220  129.6100 O   0  0  0  0  0  0  0  0  0  0  0  0
  142.4550  148.8640  132.1610 C   0  0  0  0  0  0  0  0  0  0  0  0
  142.8760  150.3460  132.2850 C   0  0  0  0  0  0  0  0  0  0  0  0
  143.2730  152.7780  133.8980 C   0  0  0  0  0  0  0  0  0  0  0  0
  143.2190  154.0660  134.7380 C   0  0  0  0  0  0  0  0  0  0  0  0
  144.7460  156.3750  133.6090 C   0  0  0  0  0  0  0  0  0  0  0  0
  145.4100  157.5890  133.4030 C   0  0  0  0  0  0  0  0  0  0  0  0
  146.7380  157.8070  133.2690 N   0  0  0  0  0  0  0  0  0  0  0  0
  147.7790  156.8210  133.3600 C   0  0  0  0  0  0  0  0  0  0  0  0
  148.6530  156.7480  132.4550 O   0  0  0  0  0  0  0  0  0  0  0  0
  147.7990  155.9380  134.4500 O   0  0  0  0  0  0  0  0  0  0  0  0
  147.4570  154.5810  134.3930 C   0  0  0  0  0  0  0  0  0  0  0  0
  147.2170  153.9230  135.4420 O   0  0  0  0  0  0  0  0  0  0  0  0
  147.3420  153.9050  133.0650 C   0  0  0  0  0  0  0  0  0  0  0  0
  146.4590  154.5950  132.2540 F   0  0  0  0  0  0  0  0  0  0  0  0
  146.8780  152.6150  133.2440 F   0  0  0  0  0  0  0  0  0  0  0  0
  148.5800  153.8650  132.4530 F   0  0  0  0  0  0  0  0  0  0  0  0
  149.4820  158.3540  133.6350 H   0  0  0  0  0  0  0  0  0  0  0  0
  145.4381  160.8673  133.1485 H   0  0  0  0  0  0  0  0  0  0  0  0
  142.8099  159.7971  133.4754 H   0  0  0  0  0  0  0  0  0  0  0  0
  141.5517  157.6444  133.8075 H   0  0  0  0  0  0  0  0  0  0  0  0
  140.5474  155.5534  133.9771 H   0  0  0  0  0  0  0  0  0  0  0  0
  141.3024  155.3538  132.3442 H   0  0  0  0  0  0  0  0  0  0  0  0
  140.5447  153.2035  134.3690 H   0  0  0  0  0  0  0  0  0  0  0  0
  140.0410  153.3669  132.6501 H   0  0  0  0  0  0  0  0  0  0  0  0
  142.3628  153.0353  131.9429 H   0  0  0  0  0  0  0  0  0  0  0  0
  141.7339  150.3912  134.6462 H   0  0  0  0  0  0  0  0  0  0  0  0
  140.2414  151.2818  134.1769 H   0  0  0  0  0  0  0  0  0  0  0  0
  140.4598  148.5387  134.2071 H   0  0  0  0  0  0  0  0  0  0  0  0
  139.3194  149.4859  133.1421 H   0  0  0  0  0  0  0  0  0  0  0  0
  139.7542  150.0461  131.1298 H   0  0  0  0  0  0  0  0  0  0  0  0
  141.1330  149.3774  130.1828 H   0  0  0  0  0  0  0  0  0  0  0  0
  142.8842  148.3050  133.0055 H   0  0  0  0  0  0  0  0  0  0  0  0
  142.8278  148.4938  131.1946 H   0  0  0  0  0  0  0  0  0  0  0  0
  143.6770  150.4281  133.0344 H   0  0  0  0  0  0  0  0  0  0  0  0
  143.2238  150.6886  131.2993 H   0  0  0  0  0  0  0  0  0  0  0  0
  143.2760  151.9150  134.5800 H   0  0  0  0  0  0  0  0  0  0  0  0
  144.1865  152.8228  133.2868 H   0  0  0  0  0  0  0  0  0  0  0  0
  142.6161  153.8839  135.6399 H   0  0  0  0  0  0  0  0  0  0  0  0
  144.2447  154.3504  135.0155 H   0  0  0  0  0  0  0  0  0  0  0  0
  145.3055  155.4295  133.6639 H   0  0  0  0  0  0  0  0  0  0  0  0
  1  2  1  0
  2  3  2  0
  2  4  1  0
  4  5  2  0
  5  6  1  0
  6  7  2  0
  7  8  1  0
  8  9  2  0
  9 10  1  0
 10 11  1  0
 11 12  1  0
 12 13  1  0
 13 14  1  0
 14 15  1  0
 15 16  1  0
 16 17  1  0
 17 18  1  0
 18 19  1  0
 19 20  2  0
 19 21  1  0
 17 22  1  0
 22 23  1  0
 13 24  1  0
 24 25  1  0
  9 26  1  0
 26 27  2  0
 27 28  1  0
 28 29  1  0
 29 30  2  0
 29 31  1  0
 31 32  1  0
 32 33  2  0
 32 34  1  0
 34 35  1  0
 34 36  1  0
 34 37  1  0
 28  4  1  0
 27  6  1  0
 25 10  1  0
 23 14  1  0
  1 38  1  0
  5 39  1  0
  7 40  1  0
  8 41  1  0
 11 42  1  0
 11 43  1  0
 12 44  1  0
 12 45  1  0
 13 46  1  0
 15 47  1  0
 15 48  1  0
 16 49  1  0
 16 50  1  0
 18 51  1  0
 18 52  1  0
 22 53  1  0
 22 54  1  0
 23 55  1  0
 23 56  1  0
 24 57  1  0
 24 58  1  0
 25 59  1  0
 25 60  1  0
 26 61  1  0
M  CHG  2   1  -1  21  -1
M  END
>  <UniqueID>  (84) 
84

>  <SMILES>  (84) 
[NH-]C(=O)c1cc2ccc(N3CCC(N4CCN(CC(=O)[O-])CC4)CC3)cc2n1C(=O)OC(=O)C(F)(F)F

>  <Energy>  (84) 
125.44148779950248

>  <Genealogy>  (84) 
[NH-]C(=O)c1cc2ccc(N3CCC(N4CCN(CC(=O)[O-])CC4)CC3)cc2n1C(=O)OC(=O)C(F)(F)F (protonated)
[NH-]C(=O)c1cc2ccc(N3CCC(N4CCN(CC(=O)[O-])CC4)CC3)cc2n1C(=O)OC(=O)C(F)(F)F (3D coordinates assigned)
[NH-]C(=O)c1cc2ccc(N3CCC(N4CCN(CC(=O)[O-])CC4)CC3)cc2n1C(=O)OC(=O)C(F)(F)F (nonaromatic ring conformer: 125.44148779950248 kcal/mol)

>  <smiles>  (84) 
NC(=O)c1cc2ccc(N3CCC(N4CCN(CC(=O)O)CC4)CC3)cc2n1C(=O)OC(=O)C(F)(F)F

>  <score_type>  (84) 
oracle

>  <origin>  (84) 
adg

>  <m_score__min__energy>  (84) 
-9.0199999999999996

>  <m_primary>  (84) 
energy

$$$$
86:0
     RDKit          3D

 55 56  0  0  0  0  0  0  0  0999 V2000
  140.3320  159.4030  132.5040 C   0  0  0  0  0  0  0  0  0  0  0  0
  140.4840  159.7410  133.8650 O   0  0  0  0  0  0  0  0  0  0  0  0
  140.8570  158.6030  134.6190 C   0  0  0  0  0  0  0  0  0  0  0  0
  142.1080  158.9030  135.4470 C   0  0  0  0  0  0  0  0  0  0  0  0
  143.2360  158.2030  134.9240 O   0  0  0  0  0  0  0  0  0  0  0  0
  143.7510  158.4210  133.6410 C   0  0  0  0  0  0  0  0  0  0  0  0
  143.1080  158.0470  132.6230 O   0  0  0  0  0  0  0  0  0  0  0  0
  145.0270  159.0590  133.4860 N   0  0  0  0  0  0  0  0  0  0  0  0
  145.3160  160.3850  133.6150 C   0  0  0  0  0  0  0  0  0  0  0  0
  144.3330  161.4770  133.7630 C   0  0  0  0  0  0  0  0  0  0  0  0
  142.9330  161.2190  133.6870 N   0  0  0  0  0  0  0  0  0  0  0  0
  144.7350  162.6630  133.9100 O   0  0  0  0  0  0  0  0  0  0  0  0
  146.6890  160.5990  133.5080 C   0  0  0  0  0  0  0  0  0  0  0  0
  147.2370  159.3530  133.3000 C   0  0  0  0  0  0  0  0  0  0  0  0
  148.5680  158.9740  133.1470 C   0  0  0  0  0  0  0  0  0  0  0  0
  148.8490  157.6060  132.9870 C   0  0  0  0  0  0  0  0  0  0  0  0
  147.8020  156.6510  132.9810 C   0  0  0  0  0  0  0  0  0  0  0  0
  148.1180  155.1850  132.8580 C   0  0  0  0  0  0  0  0  0  0  0  0
  146.8490  154.3460  133.0260 C   0  0  0  0  0  0  0  0  0  0  0  0
  146.9270  153.5360  134.2400 N   0  0  0  0  0  0  0  0  0  0  0  0
  147.0350  154.1110  135.5480 C   0  0  0  0  0  0  0  0  0  0  0  0
  147.0840  155.3640  135.6840 O   0  0  0  0  0  0  0  0  0  0  0  0
  147.0900  153.2590  136.6610 O   0  0  0  0  0  0  0  0  0  0  0  0
  148.2480  152.9820  137.4620 C   0  0  0  0  0  0  0  0  0  0  0  0
  147.7610  152.2710  138.7340 C   0  0  0  0  0  0  0  0  0  0  0  0
  149.2180  152.0500  136.7120 C   0  0  0  0  0  0  0  0  0  0  0  0
  148.9540  154.2910  137.8650 C   0  0  0  0  0  0  0  0  0  0  0  0
  146.4650  157.0720  133.1510 C   0  0  0  0  0  0  0  0  0  0  0  0
  146.2130  158.4410  133.2920 C   0  0  0  0  0  0  0  0  0  0  0  0
  139.8821  158.4025  132.4227 H   0  0  0  0  0  0  0  0  0  0  0  0
  139.6786  160.1398  132.0140 H   0  0  0  0  0  0  0  0  0  0  0  0
  141.3168  159.4031  132.0140 H   0  0  0  0  0  0  0  0  0  0  0  0
  140.0326  158.3280  135.2933 H   0  0  0  0  0  0  0  0  0  0  0  0
  141.0733  157.7724  133.9310 H   0  0  0  0  0  0  0  0  0  0  0  0
  142.3089  159.9841  135.4197 H   0  0  0  0  0  0  0  0  0  0  0  0
  141.9353  158.5742  136.4824 H   0  0  0  0  0  0  0  0  0  0  0  0
  142.5710  160.2440  133.5950 H   0  0  0  0  0  0  0  0  0  0  0  0
  147.2216  161.5591  133.5754 H   0  0  0  0  0  0  0  0  0  0  0  0
  149.3746  159.7219  133.1512 H   0  0  0  0  0  0  0  0  0  0  0  0
  149.8906  157.2739  132.8654 H   0  0  0  0  0  0  0  0  0  0  0  0
  148.5517  154.9904  131.8660 H   0  0  0  0  0  0  0  0  0  0  0  0
  148.8337  154.9085  133.6463 H   0  0  0  0  0  0  0  0  0  0  0  0
  145.9788  155.0155  133.0930 H   0  0  0  0  0  0  0  0  0  0  0  0
  146.7476  153.6773  132.1585 H   0  0  0  0  0  0  0  0  0  0  0  0
  146.9610  152.4970  134.1490 H   0  0  0  0  0  0  0  0  0  0  0  0
  148.1300  152.8097  139.6193 H   0  0  0  0  0  0  0  0  0  0  0  0
  146.6612  152.2547  138.7467 H   0  0  0  0  0  0  0  0  0  0  0  0
  148.1432  151.2396  138.7467 H   0  0  0  0  0  0  0  0  0  0  0  0
  149.8131  151.4782  137.4393 H   0  0  0  0  0  0  0  0  0  0  0  0
  148.6446  151.3554  136.0805 H   0  0  0  0  0  0  0  0  0  0  0  0
  149.8891  152.6507  136.0805 H   0  0  0  0  0  0  0  0  0  0  0  0
  148.9932  154.3638  138.9619 H   0  0  0  0  0  0  0  0  0  0  0  0
  149.9769  154.2955  137.4604 H   0  0  0  0  0  0  0  0  0  0  0  0
  148.3959  155.1482  137.4604 H   0  0  0  0  0  0  0  0  0  0  0  0
  145.6423  156.3421  133.1720 H   0  0  0  0  0  0  0  0  0  0  0  0
  1  2  1  0
  2  3  1  0
  3  4  1  0
  4  5  1  0
  5  6  1  0
  6  7  2  0
  6  8  1  0
  8  9  1  0
  9 10  1  0
 10 11  1  0
 10 12  2  0
  9 13  2  0
 13 14  1  0
 14 15  2  0
 15 16  1  0
 16 17  2  0
 17 18  1  0
 18 19  1  0
 19 20  1  0
 20 21  1  0
 21 22  2  0
 21 23  1  0
 23 24  1  0
 24 25  1  0
 24 26  1  0
 24 27  1  0
 17 28  1  0
 28 29  2  0
 29  8  1  0
 29 14  1  0
  1 30  1  0
  1 31  1  0
  1 32  1  0
  3 33  1  0
  3 34  1  0
  4 35  1  0
  4 36  1  0
 11 37  1  0
 13 38  1  0
 15 39  1  0
 16 40  1  0
 18 41  1  0
 18 42  1  0
 19 43  1  0
 19 44  1  0
 20 45  1  0
 25 46  1  0
 25 47  1  0
 25 48  1  0
 26 49  1  0
 26 50  1  0
 26 51  1  0
 27 52  1  0
 27 53  1  0
 27 54  1  0
 28 55  1  0
M  CHG  1  11  -1
M  END
>  <UniqueID>  (85) 
85

>  <SMILES>  (85) 
COCCOC(=O)n1c(C([NH-])=O)cc2ccc(CCNC(=O)OC(C)(C)C)cc21

>  <Energy>  (85) 
82.51953264801708

>  <Genealogy>  (85) 
COCCOC(=O)n1c(C([NH-])=O)cc2ccc(CCNC(=O)OC(C)(C)C)cc21 (protonated)
COCCOC(=O)n1c(C([NH-])=O)cc2ccc(CCNC(=O)OC(C)(C)C)cc21 (3D coordinates assigned)
COCCOC(=O)n1c(C([NH-])=O)cc2ccc(CCNC(=O)OC(C)(C)C)cc21 (optimized conformer: 82.51953264801708 kcal/mol)

>  <smiles>  (85) 
COCCOC(=O)n1c(C(N)=O)cc2ccc(CCNC(=O)OC(C)(C)C)cc21

>  <score_type>  (85) 
oracle

>  <origin>  (85) 
adg

>  <m_score__min__energy>  (85) 
-7.8899999999999997

>  <m_primary>  (85) 
energy

$$$$
87:0
     RDKit          3D

 49 51  0  0  0  0  0  0  0  0999 V2000
  148.9200  158.3190  131.8900 N   0  0  0  0  0  0  0  0  0  0  0  0
  148.3810  158.8040  133.1180 C   0  0  0  0  0  0  0  0  0  0  0  0
  149.1510  158.9950  134.0960 O   0  0  0  0  0  0  0  0  0  0  0  0
  146.9410  159.1210  133.2150 C   0  0  0  0  0  0  0  0  0  0  0  0
  146.4540  160.4120  133.4000 C   0  0  0  0  0  0  0  0  0  0  0  0
  145.0910  160.2730  133.5350 C   0  0  0  0  0  0  0  0  0  0  0  0
  144.1100  161.2370  133.7410 C   0  0  0  0  0  0  0  0  0  0  0  0
  142.7740  160.8100  133.8210 C   0  0  0  0  0  0  0  0  0  0  0  0
  142.4400  159.4400  133.6750 C   0  0  0  0  0  0  0  0  0  0  0  0
  140.9970  158.9900  133.7450 C   0  0  0  0  0  0  0  0  0  0  0  0
  140.4950  158.6390  135.1690 C   0  0  0  0  0  0  0  0  0  0  0  0
  140.3630  157.1180  135.4200 C   0  0  0  0  0  0  0  0  0  0  0  0
  141.4930  156.6110  136.3300 C   0  0  0  0  0  0  0  0  0  0  0  0
  141.5140  157.2280  137.6120 O   0  0  0  0  0  0  0  0  0  0  0  0
  141.0990  158.5910  137.6170 C   0  0  0  0  0  0  0  0  0  0  0  0
  141.3170  159.3210  136.2830 C   0  0  0  0  0  0  0  0  0  0  0  0
  143.4690  158.4890  133.4870 C   0  0  0  0  0  0  0  0  0  0  0  0
  144.7940  158.9390  133.4270 C   0  0  0  0  0  0  0  0  0  0  0  0
  145.9190  158.2170  133.2250 N   0  0  0  0  0  0  0  0  0  0  0  0
  145.9900  156.7990  133.0010 C   0  0  0  0  0  0  0  0  0  0  0  0
  144.9630  156.0840  133.1470 O   0  0  0  0  0  0  0  0  0  0  0  0
  147.2100  156.2140  132.6530 O   0  0  0  0  0  0  0  0  0  0  0  0
  147.9990  155.4650  133.5710 C   0  0  0  0  0  0  0  0  0  0  0  0
  147.7370  155.9580  134.9870 C   0  0  0  0  0  0  0  0  0  0  0  0
  146.8130  155.1020  135.6140 O   0  0  0  0  0  0  0  0  0  0  0  0
  147.6770  153.8610  136.4020 P   0  0  0  0  0  0  0  0  0  0  0  0
  148.6630  154.4580  137.3800 O   0  0  0  0  0  0  0  0  0  0  0  0
  148.5220  152.9630  135.2460 O   0  0  0  0  0  0  0  0  0  0  0  0
  146.6140  152.8340  137.2270 O   0  0  0  0  0  0  0  0  0  0  0  0
  148.6140  157.4020  131.4950 H   0  0  0  0  0  0  0  0  0  0  0  0
  147.0351  161.3454  133.4316 H   0  0  0  0  0  0  0  0  0  0  0  0
  144.3720  162.3009  133.8383 H   0  0  0  0  0  0  0  0  0  0  0  0
  141.9775  161.5475  133.9991 H   0  0  0  0  0  0  0  0  0  0  0  0
  140.3662  159.7998  133.3495 H   0  0  0  0  0  0  0  0  0  0  0  0
  140.9322  158.0632  133.1561 H   0  0  0  0  0  0  0  0  0  0  0  0
  139.4774  159.0543  135.2146 H   0  0  0  0  0  0  0  0  0  0  0  0
  139.3949  156.9153  135.9013 H   0  0  0  0  0  0  0  0  0  0  0  0
  140.4293  156.5959  134.4541 H   0  0  0  0  0  0  0  0  0  0  0  0
  141.3679  155.5269  136.4681 H   0  0  0  0  0  0  0  0  0  0  0  0
  142.4425  156.8637  135.8355 H   0  0  0  0  0  0  0  0  0  0  0  0
  140.0260  158.6239  137.8568 H   0  0  0  0  0  0  0  0  0  0  0  0
  141.7191  159.1073  138.3646 H   0  0  0  0  0  0  0  0  0  0  0  0
  140.9958  160.3682  136.3838 H   0  0  0  0  0  0  0  0  0  0  0  0
  142.3844  159.2824  136.0199 H   0  0  0  0  0  0  0  0  0  0  0  0
  143.2341  157.4188  133.3899 H   0  0  0  0  0  0  0  0  0  0  0  0
  147.7332  154.4000  133.4987 H   0  0  0  0  0  0  0  0  0  0  0  0
  149.0642  155.5949  133.3293 H   0  0  0  0  0  0  0  0  0  0  0  0
  148.6789  155.9613  135.5551 H   0  0  0  0  0  0  0  0  0  0  0  0
  147.3287  156.9788  134.9521 H   0  0  0  0  0  0  0  0  0  0  0  0
  1  2  1  0
  2  3  2  0
  2  4  1  0
  4  5  2  0
  5  6  1  0
  6  7  2  0
  7  8  1  0
  8  9  2  0
  9 10  1  0
 10 11  1  0
 11 12  1  0
 12 13  1  0
 13 14  1  0
 14 15  1  0
 15 16  1  0
  9 17  1  0
 17 18  2  0
 18 19  1  0
 19 20  1  0
 20 21  2  0
 20 22  1  0
 22 23  1  0
 23 24  1  0
 24 25  1  0
 25 26  1  0
 26 27  2  0
 26 28  1  0
 26 29  1  0
 19  4  1  0
 18  6  1  0
 16 11  1  0
  1 30  1  0
  5 31  1  0
  7 32  1  0
  8 33  1  0
 10 34  1  0
 10 35  1  0
 11 36  1  0
 12 37  1  0
 12 38  1  0
 13 39  1  0
 13 40  1  0
 15 41  1  0
 15 42  1  0
 16 43  1  0
 16 44  1  0
 17 45  1  0
 23 46  1  0
 23 47  1  0
 24 48  1  0
 24 49  1  0
M  CHG  3   1  -1  28  -1  29  -1
M  END
>  <UniqueID>  (86) 
86

>  <SMILES>  (86) 
[NH-]C(=O)c1cc2ccc(CC3CCOCC3)cc2n1C(=O)OCCOP(=O)([O-])[O-]

>  <Energy>  (86) 
92.3420308202917

>  <Genealogy>  (86) 
[NH-]C(=O)c1cc2ccc(CC3CCOCC3)cc2n1C(=O)OCCOP(=O)([O-])[O-] (protonated)
[NH-]C(=O)c1cc2ccc(CC3CCOCC3)cc2n1C(=O)OCCOP(=O)([O-])[O-] (3D coordinates assigned)
[NH-]C(=O)c1cc2ccc(CC3CCOCC3)cc2n1C(=O)OCCOP(=O)([O-])[O-] (nonaromatic ring conformer: 92.3420308202917 kcal/mol)

>  <smiles>  (86) 
NC(=O)c1cc2ccc(CC3CCOCC3)cc2n1C(=O)OCCOP(=O)(O)O

>  <score_type>  (86) 
oracle

>  <origin>  (86) 
adg

>  <m_score__min__energy>  (86) 
-8.8699999999999992

>  <m_primary>  (86) 
energy

$$$$
88:0
     RDKit          3D

 43 44  0  0  0  0  0  0  0  0999 V2000
  147.6890  150.9010  132.2340 C   0  0  0  0  0  0  0  0  0  0  0  0
  149.0150  151.6310  132.5350 C   0  0  0  0  0  0  0  0  0  0  0  0
  149.9490  151.4860  131.3170 C   0  0  0  0  0  0  0  0  0  0  0  0
  149.6760  150.9960  133.7710 C   0  0  0  0  0  0  0  0  0  0  0  0
  148.7570  153.0980  132.8190 C   0  0  0  0  0  0  0  0  0  0  0  0
  149.4400  153.9820  132.2300 O   0  0  0  0  0  0  0  0  0  0  0  0
  147.8150  153.4710  133.7860 O   0  0  0  0  0  0  0  0  0  0  0  0
  147.7480  154.7820  134.3360 C   0  0  0  0  0  0  0  0  0  0  0  0
  146.6610  155.4890  133.7500 O   0  0  0  0  0  0  0  0  0  0  0  0
  146.8180  156.3550  132.6640 C   0  0  0  0  0  0  0  0  0  0  0  0
  146.9530  155.8940  131.4980 O   0  0  0  0  0  0  0  0  0  0  0  0
  146.8470  157.7750  132.8820 N   0  0  0  0  0  0  0  0  0  0  0  0
  147.8650  158.6390  132.6010 C   0  0  0  0  0  0  0  0  0  0  0  0
  149.2220  158.2650  132.1530 C   0  0  0  0  0  0  0  0  0  0  0  0
  149.6490  156.9070  132.2380 N   0  0  0  0  0  0  0  0  0  0  0  0
  149.9980  159.1250  131.6580 O   0  0  0  0  0  0  0  0  0  0  0  0
  147.4790  159.9510  132.8660 C   0  0  0  0  0  0  0  0  0  0  0  0
  146.1870  159.8650  133.3300 C   0  0  0  0  0  0  0  0  0  0  0  0
  145.3100  160.8710  133.7190 C   0  0  0  0  0  0  0  0  0  0  0  0
  144.0150  160.4980  134.1180 C   0  0  0  0  0  0  0  0  0  0  0  0
  143.6240  159.1340  134.1310 C   0  0  0  0  0  0  0  0  0  0  0  0
  142.2130  158.7530  134.5010 C   0  0  0  0  0  0  0  0  0  0  0  0
  142.1630  157.4500  134.9650 F   0  0  0  0  0  0  0  0  0  0  0  0
  141.4050  158.8640  133.3840 F   0  0  0  0  0  0  0  0  0  0  0  0
  141.7260  159.5860  135.4930 F   0  0  0  0  0  0  0  0  0  0  0  0
  144.5390  158.1440  133.7050 C   0  0  0  0  0  0  0  0  0  0  0  0
  145.8280  158.5420  133.3300 C   0  0  0  0  0  0  0  0  0  0  0  0
  147.1968  150.6300  133.1797 H   0  0  0  0  0  0  0  0  0  0  0  0
  147.0294  151.5631  131.6539 H   0  0  0  0  0  0  0  0  0  0  0  0
  147.8957  149.9895  131.6539 H   0  0  0  0  0  0  0  0  0  0  0  0
  150.9808  151.3258  131.6631 H   0  0  0  0  0  0  0  0  0  0  0  0
  149.6285  150.6268  130.7094 H   0  0  0  0  0  0  0  0  0  0  0  0
  149.9041  152.4019  130.7094 H   0  0  0  0  0  0  0  0  0  0  0  0
  149.2328  151.4218  134.6833 H   0  0  0  0  0  0  0  0  0  0  0  0
  149.5117  149.9084  133.7566 H   0  0  0  0  0  0  0  0  0  0  0  0
  150.7561  151.2038  133.7566 H   0  0  0  0  0  0  0  0  0  0  0  0
  147.5981  154.7157  135.4237 H   0  0  0  0  0  0  0  0  0  0  0  0
  148.6870  155.3153  134.1262 H   0  0  0  0  0  0  0  0  0  0  0  0
  149.0630  156.1360  131.8480 H   0  0  0  0  0  0  0  0  0  0  0  0
  148.0800  160.8626  132.7325 H   0  0  0  0  0  0  0  0  0  0  0  0
  145.6200  161.9264  133.7147 H   0  0  0  0  0  0  0  0  0  0  0  0
  143.2962  161.2725  134.4238 H   0  0  0  0  0  0  0  0  0  0  0  0
  144.2448  157.0847  133.6690 H   0  0  0  0  0  0  0  0  0  0  0  0
  1  2  1  0
  2  3  1  0
  2  4  1  0
  2  5  1  0
  5  6  2  0
  5  7  1  0
  7  8  1  0
  8  9  1  0
  9 10  1  0
 10 11  2  0
 10 12  1  0
 12 13  1  0
 13 14  1  0
 14 15  1  0
 14 16  2  0
 13 17  2  0
 17 18  1  0
 18 19  2  0
 19 20  1  0
 20 21  2  0
 21 22  1  0
 22 23  1  0
 22 24  1  0
 22 25  1  0
 21 26  1  0
 26 27  2  0
 27 12  1  0
 27 18  1  0
  1 28  1  0
  1 29  1  0
  1 30  1  0
  3 31  1  0
  3 32  1  0
  3 33  1  0
  4 34  1  0
  4 35  1  0
  4 36  1  0
  8 37  1  0
  8 38  1  0
 15 39  1  0
 17 40  1  0
 19 41  1  0
 20 42  1  0
 26 43  1  0
M  CHG  1  15  -1
M  END
>  <UniqueID>  (87) 
87

>  <SMILES>  (87) 
CC(C)(C)C(=O)OCOC(=O)n1c(C([NH-])=O)cc2ccc(C(F)(F)F)cc21

>  <Energy>  (87) 
74.30361940304213

>  <Genealogy>  (87) 
CC(C)(C)C(=O)OCOC(=O)n1c(C([NH-])=O)cc2ccc(C(F)(F)F)cc21 (protonated)
CC(C)(C)C(=O)OCOC(=O)n1c(C([NH-])=O)cc2ccc(C(F)(F)F)cc21 (3D coordinates assigned)
CC(C)(C)C(=O)OCOC(=O)n1c(C([NH-])=O)cc2ccc(C(F)(F)F)cc21 (optimized conformer: 74.30361940304213 kcal/mol)

>  <smiles>  (87) 
CC(C)(C)C(=O)OCOC(=O)n1c(C(N)=O)cc2ccc(C(F)(F)F)cc21

>  <score_type>  (87) 
oracle

>  <origin>  (87) 
adg

>  <m_score__min__energy>  (87) 
-6.2599999999999998

>  <m_primary>  (87) 
energy

$$$$
89:0
     RDKit          3D

 40 41  0  0  0  0  0  0  0  0999 V2000
  139.6550  157.3350  135.3690 C   0  0  0  0  0  0  0  0  0  0  0  0
  140.0550  157.2260  133.9630 N   0  0  0  0  0  0  0  0  0  0  0  0
  140.1450  158.4240  133.1630 C   0  0  0  0  0  0  0  0  0  0  0  0
  140.7000  159.4520  133.6390 O   0  0  0  0  0  0  0  0  0  0  0  0
  139.6130  158.4720  131.7560 C   0  0  0  0  0  0  0  0  0  0  0  0
  140.5640  159.0300  130.8890 O   0  0  0  0  0  0  0  0  0  0  0  0
  140.2250  155.9170  133.3830 C   0  0  0  0  0  0  0  0  0  0  0  0
  139.2240  155.2970  132.9320 O   0  0  0  0  0  0  0  0  0  0  0  0
  141.5140  155.2810  133.3630 N   0  0  0  0  0  0  0  0  0  0  0  0
  142.7410  155.8730  133.4340 C   0  0  0  0  0  0  0  0  0  0  0  0
  143.0030  157.3070  133.6820 C   0  0  0  0  0  0  0  0  0  0  0  0
  143.0650  158.2410  132.6080 N   0  0  0  0  0  0  0  0  0  0  0  0
  143.1360  157.7200  134.8660 O   0  0  0  0  0  0  0  0  0  0  0  0
  143.7480  154.9190  133.3070 C   0  0  0  0  0  0  0  0  0  0  0  0
  143.0960  153.7160  133.1560 C   0  0  0  0  0  0  0  0  0  0  0  0
  143.6080  152.4360  132.9840 C   0  0  0  0  0  0  0  0  0  0  0  0
  142.6980  151.3760  132.8330 C   0  0  0  0  0  0  0  0  0  0  0  0
  141.2920  151.6050  132.8460 C   0  0  0  0  0  0  0  0  0  0  0  0
  140.3600  150.5060  132.6880 N   0  0  0  0  0  0  0  0  0  0  0  0
  139.1570  150.6600  131.8600 C   0  0  0  0  0  0  0  0  0  0  0  0
  140.6050  149.2180  133.3510 C   0  0  0  0  0  0  0  0  0  0  0  0
  140.8210  152.9320  133.0180 C   0  0  0  0  0  0  0  0  0  0  0  0
  141.7500  153.9620  133.1880 C   0  0  0  0  0  0  0  0  0  0  0  0
  140.5147  157.1007  136.0140 H   0  0  0  0  0  0  0  0  0  0  0  0
  139.3112  158.3596  135.5740 H   0  0  0  0  0  0  0  0  0  0  0  0
  138.8389  156.6265  135.5740 H   0  0  0  0  0  0  0  0  0  0  0  0
  139.3759  157.4505  131.4238 H   0  0  0  0  0  0  0  0  0  0  0  0
  138.7076  159.0964  131.7396 H   0  0  0  0  0  0  0  0  0  0  0  0
  141.3910  159.1650  131.4210 H   0  0  0  0  0  0  0  0  0  0  0  0
  142.2000  158.6920  132.2370 H   0  0  0  0  0  0  0  0  0  0  0  0
  144.8344  155.0906  133.3238 H   0  0  0  0  0  0  0  0  0  0  0  0
  144.6933  152.2577  132.9665 H   0  0  0  0  0  0  0  0  0  0  0  0
  143.0778  150.3519  132.7025 H   0  0  0  0  0  0  0  0  0  0  0  0
  138.2766  150.7727  132.5098 H   0  0  0  0  0  0  0  0  0  0  0  0
  139.2607  151.5522  131.2250 H   0  0  0  0  0  0  0  0  0  0  0  0
  139.0326  149.7705  131.2250 H   0  0  0  0  0  0  0  0  0  0  0  0
  140.5787  149.3563  134.4419 H   0  0  0  0  0  0  0  0  0  0  0  0
  139.8275  148.4988  133.0537 H   0  0  0  0  0  0  0  0  0  0  0  0
  141.5922  148.8345  133.0537 H   0  0  0  0  0  0  0  0  0  0  0  0
  139.7422  153.1467  133.0176 H   0  0  0  0  0  0  0  0  0  0  0  0
  1  2  1  0
  2  3  1  0
  3  4  2  0
  3  5  1  0
  5  6  1  0
  2  7  1  0
  7  8  2  0
  7  9  1  0
  9 10  1  0
 10 11  1  0
 11 12  1  0
 11 13  2  0
 10 14  2  0
 14 15  1  0
 15 16  2  0
 16 17  1  0
 17 18  2  0
 18 19  1  0
 19 20  1  0
 19 21  1  0
 18 22  1  0
 22 23  2  0
 23  9  1  0
 23 15  1  0
  1 24  1  0
  1 25  1  0
  1 26  1  0
  5 27  1  0
  5 28  1  0
  6 29  1  0
 12 30  1  0
 14 31  1  0
 16 32  1  0
 17 33  1  0
 20 34  1  0
 20 35  1  0
 20 36  1  0
 21 37  1  0
 21 38  1  0
 21 39  1  0
 22 40  1  0
M  CHG  1  12  -1
M  END
>  <UniqueID>  (88) 
88

>  <SMILES>  (88) 
CN(C(=O)CO)C(=O)n1c(C([NH-])=O)cc2ccc(N(C)C)cc21

>  <Energy>  (88) 
81.98842022038065

>  <Genealogy>  (88) 
CN(C(=O)CO)C(=O)n1c(C([NH-])=O)cc2ccc(N(C)C)cc21 (protonated)
CN(C(=O)CO)C(=O)n1c(C([NH-])=O)cc2ccc(N(C)C)cc21 (3D coordinates assigned)
CN(C(=O)CO)C(=O)n1c(C([NH-])=O)cc2ccc(N(C)C)cc21 (optimized conformer: 81.98842022038065 kcal/mol)

>  <smiles>  (88) 
CN(C(=O)CO)C(=O)n1c(C(N)=O)cc2ccc(N(C)C)cc21

>  <score_type>  (88) 
oracle

>  <origin>  (88) 
adg

>  <m_score__min__energy>  (88) 
-5.5499999999999998

>  <m_primary>  (88) 
energy

$$$$
90:0
     RDKit          3D

 38 40  0  0  0  0  0  0  0  0999 V2000
  141.4320  159.8450  135.1480 N   0  0  0  0  0  0  0  0  0  0  0  0
  142.2020  160.4800  134.1250 C   0  0  0  0  0  0  0  0  0  0  0  0
  141.6770  161.4010  133.4470 O   0  0  0  0  0  0  0  0  0  0  0  0
  143.5870  160.0430  133.8400 C   0  0  0  0  0  0  0  0  0  0  0  0
  144.6720  160.9100  133.7210 C   0  0  0  0  0  0  0  0  0  0  0  0
  145.7700  160.1010  133.5450 C   0  0  0  0  0  0  0  0  0  0  0  0
  147.1080  160.4370  133.3600 C   0  0  0  0  0  0  0  0  0  0  0  0
  148.0300  159.3930  133.1720 C   0  0  0  0  0  0  0  0  0  0  0  0
  147.5990  158.0420  133.1660 C   0  0  0  0  0  0  0  0  0  0  0  0
  148.5830  156.9300  132.9440 C   0  0  0  0  0  0  0  0  0  0  0  0
  149.6190  157.3780  132.1440 F   0  0  0  0  0  0  0  0  0  0  0  0
  147.9540  155.8660  132.3230 F   0  0  0  0  0  0  0  0  0  0  0  0
  146.2320  157.7410  133.3550 C   0  0  0  0  0  0  0  0  0  0  0  0
  145.3400  158.7990  133.5600 C   0  0  0  0  0  0  0  0  0  0  0  0
  144.0010  158.7470  133.7430 N   0  0  0  0  0  0  0  0  0  0  0  0
  143.1880  157.5640  133.7610 C   0  0  0  0  0  0  0  0  0  0  0  0
  143.1230  156.8320  132.7360 O   0  0  0  0  0  0  0  0  0  0  0  0
  142.4620  157.2140  134.9470 N   0  0  0  0  0  0  0  0  0  0  0  0
  141.0520  156.8290  135.0020 C   0  0  1  0  0  0  0  0  0  0  0  0
  140.4570  157.2240  136.3320 C   0  0  0  0  0  0  0  0  0  0  0  0
  139.9300  158.3600  136.4710 O   0  0  0  0  0  0  0  0  0  0  0  0
  140.5070  156.3610  137.4200 O   0  0  0  0  0  0  0  0  0  0  0  0
  140.3060  157.3530  133.7480 C   0  0  0  0  0  0  0  0  0  0  0  0
  139.4660  156.3020  133.0310 C   0  0  0  0  0  0  0  0  0  0  0  0
  138.7840  157.4610  133.7390 C   0  0  0  0  0  0  0  0  0  0  0  0
  140.4420  160.1360  135.3140 H   0  0  0  0  0  0  0  0  0  0  0  0
  141.8480  159.1190  135.7720 H   0  0  0  0  0  0  0  0  0  0  0  0
  144.6538  162.0092  133.7597 H   0  0  0  0  0  0  0  0  0  0  0  0
  147.4339  161.4876  133.3609 H   0  0  0  0  0  0  0  0  0  0  0  0
  149.0954  159.6259  133.0282 H   0  0  0  0  0  0  0  0  0  0  0  0
  148.9822  156.6037  133.9157 H   0  0  0  0  0  0  0  0  0  0  0  0
  145.8773  156.6998  133.3413 H   0  0  0  0  0  0  0  0  0  0  0  0
  140.9396  155.7356  134.9582 H   0  0  0  0  0  0  0  0  0  0  0  0
  141.1039  158.0682  133.4993 H   0  0  0  0  0  0  0  0  0  0  0  0
  139.4673  156.2535  131.9321 H   0  0  0  0  0  0  0  0  0  0  0  0
  139.3855  155.2060  133.0799 H   0  0  0  0  0  0  0  0  0  0  0  0
  138.2923  158.2510  133.1523 H   0  0  0  0  0  0  0  0  0  0  0  0
  138.0064  157.5507  134.5119 H   0  0  0  0  0  0  0  0  0  0  0  0
  1  2  1  0
  2  3  2  0
  2  4  1  0
  4  5  2  0
  5  6  1  0
  6  7  2  0
  7  8  1  0
  8  9  2  0
  9 10  1  0
 10 11  1  0
 10 12  1  0
  9 13  1  0
 13 14  2  0
 14 15  1  0
 15 16  1  0
 16 17  2  0
 16 18  1  0
 18 19  1  0
 19 20  1  0
 20 21  2  0
 20 22  1  0
 19 23  1  0
 23 24  1  0
 24 25  1  0
 15  4  1  0
 25 23  1  0
 14  6  1  0
  1 26  1  0
  1 27  1  0
  5 28  1  0
  7 29  1  0
  8 30  1  0
 10 31  1  0
 13 32  1  0
 19 33  1  6
 23 34  1  0
 24 35  1  0
 24 36  1  0
 25 37  1  0
 25 38  1  0
M  CHG  2  18  -1  22  -1
M  END
>  <UniqueID>  (89) 
89

>  <SMILES>  (89) 
NC(=O)c1cc2ccc(C(F)F)cc2n1C(=O)[N-][C@@H](C(=O)[O-])C1CC1

>  <Energy>  (89) 
344.4240660417831

>  <Genealogy>  (89) 
NC(=O)c1cc2ccc(C(F)F)cc2n1C(=O)[N-]C(C(=O)[O-])C1CC1 (protonated)
NC(=O)c1cc2ccc(C(F)F)cc2n1C(=O)[N-][C@@H](C(=O)[O-])C1CC1 (chirality)
NC(=O)c1cc2ccc(C(F)F)cc2n1C(=O)[N-][C@@H](C(=O)[O-])C1CC1 (3D coordinates assigned)
NC(=O)c1cc2ccc(C(F)F)cc2n1C(=O)[N-][C@@H](C(=O)[O-])C1CC1 (nonaromatic ring conformer: 344.4240660417831 kcal/mol)

>  <smiles>  (89) 
NC(=O)c1cc2ccc(C(F)F)cc2n1C(=O)NC(C(=O)O)C1CC1

>  <score_type>  (89) 
oracle

>  <origin>  (89) 
adg

>  <m_score__min__energy>  (89) 
-6.9800000000000004

>  <m_primary>  (89) 
energy

$$$$
91:0
     RDKit          3D

 35 36  0  0  0  0  0  0  0  0999 V2000
  141.6580  157.9390  135.1240 C   0  0  0  0  0  0  0  0  0  0  0  0
  142.8190  158.7260  134.7320 N   0  0  0  0  0  0  0  0  0  0  0  0
  142.7100  160.1120  134.3830 C   0  0  0  0  0  0  0  0  0  0  0  0
  141.5900  160.6910  134.4240 O   0  0  0  0  0  0  0  0  0  0  0  0
  143.9310  160.8880  134.0090 C   0  0  0  0  0  0  0  0  0  0  0  0
  145.0720  160.0450  134.1220 O   0  0  0  0  0  0  0  0  0  0  0  0
  145.2990  158.9600  133.2720 C   0  0  0  0  0  0  0  0  0  0  0  0
  144.3490  158.4630  132.6070 O   0  0  0  0  0  0  0  0  0  0  0  0
  146.6170  158.3970  133.1720 N   0  0  0  0  0  0  0  0  0  0  0  0
  147.0450  157.1950  133.6510 C   0  0  0  0  0  0  0  0  0  0  0  0
  146.2860  156.2930  134.5420 C   0  0  0  0  0  0  0  0  0  0  0  0
  144.8720  156.4150  134.6760 N   0  0  0  0  0  0  0  0  0  0  0  0
  146.8980  155.4360  135.2330 O   0  0  0  0  0  0  0  0  0  0  0  0
  148.3580  156.9490  133.2530 C   0  0  0  0  0  0  0  0  0  0  0  0
  148.7280  158.0490  132.5160 C   0  0  0  0  0  0  0  0  0  0  0  0
  149.9300  158.3330  131.8730 C   0  0  0  0  0  0  0  0  0  0  0  0
  150.0260  159.5390  131.1600 C   0  0  0  0  0  0  0  0  0  0  0  0
  148.9220  160.4230  131.0850 C   0  0  0  0  0  0  0  0  0  0  0  0
  149.0480  161.7230  130.3460 C   0  0  0  0  0  0  0  0  0  0  0  0
  147.7230  160.1090  131.7620 C   0  0  0  0  0  0  0  0  0  0  0  0
  147.6600  158.9100  132.4810 C   0  0  0  0  0  0  0  0  0  0  0  0
  141.5968  157.8975  136.2215 H   0  0  0  0  0  0  0  0  0  0  0  0
  140.7462  158.4060  134.7233 H   0  0  0  0  0  0  0  0  0  0  0  0
  141.7541  156.9191  134.7233 H   0  0  0  0  0  0  0  0  0  0  0  0
  143.7570  158.2650  134.7070 H   0  0  0  0  0  0  0  0  0  0  0  0
  143.8377  161.2444  132.9725 H   0  0  0  0  0  0  0  0  0  0  0  0
  144.0409  161.7520  134.6809 H   0  0  0  0  0  0  0  0  0  0  0  0
  144.3450  157.1530  134.1580 H   0  0  0  0  0  0  0  0  0  0  0  0
  148.9686  156.0627  133.4804 H   0  0  0  0  0  0  0  0  0  0  0  0
  150.7781  157.6342  131.9220 H   0  0  0  0  0  0  0  0  0  0  0  0
  150.9678  159.7996  130.6549 H   0  0  0  0  0  0  0  0  0  0  0  0
  149.1281  162.5490  131.0680 H   0  0  0  0  0  0  0  0  0  0  0  0
  149.9481  161.6998  129.7141 H   0  0  0  0  0  0  0  0  0  0  0  0
  148.1602  161.8731  129.7141 H   0  0  0  0  0  0  0  0  0  0  0  0
  146.8600  160.7900  131.7251 H   0  0  0  0  0  0  0  0  0  0  0  0
  1  2  1  0
  2  3  1  0
  3  4  2  0
  3  5  1  0
  5  6  1  0
  6  7  1  0
  7  8  2  0
  7  9  1  0
  9 10  1  0
 10 11  1  0
 11 12  1  0
 11 13  2  0
 10 14  2  0
 14 15  1  0
 15 16  2  0
 16 17  1  0
 17 18  2  0
 18 19  1  0
 18 20  1  0
 20 21  2  0
 21  9  1  0
 21 15  1  0
  1 22  1  0
  1 23  1  0
  1 24  1  0
  2 25  1  0
  5 26  1  0
  5 27  1  0
 12 28  1  0
 14 29  1  0
 16 30  1  0
 17 31  1  0
 19 32  1  0
 19 33  1  0
 19 34  1  0
 20 35  1  0
M  CHG  1  12  -1
M  END
>  <UniqueID>  (90) 
90

>  <SMILES>  (90) 
CNC(=O)COC(=O)n1c(C([NH-])=O)cc2ccc(C)cc21

>  <Energy>  (90) 
67.00294228801346

>  <Genealogy>  (90) 
CNC(=O)COC(=O)n1c(C([NH-])=O)cc2ccc(C)cc21 (protonated)
CNC(=O)COC(=O)n1c(C([NH-])=O)cc2ccc(C)cc21 (3D coordinates assigned)
CNC(=O)COC(=O)n1c(C([NH-])=O)cc2ccc(C)cc21 (optimized conformer: 67.00294228801346 kcal/mol)

>  <smiles>  (90) 
CNC(=O)COC(=O)n1c(C(N)=O)cc2ccc(C)cc21

>  <score_type>  (90) 
oracle

>  <origin>  (90) 
adg

>  <m_score__min__energy>  (90) 
-6.54

>  <m_primary>  (90) 
energy

$$$$
92:0
     RDKit          3D

 39 40  0  0  0  0  0  0  0  0999 V2000
  141.4020  149.0990  132.2320 C   0  0  0  0  0  0  0  0  0  0  0  0
  140.9940  150.5640  132.0640 C   0  0  0  0  0  0  0  0  0  0  0  0
  139.4800  150.7260  132.2260 C   0  0  0  0  0  0  0  0  0  0  0  0
  141.8700  151.5930  133.2430 S   0  0  0  0  0  0  0  0  0  0  0  0
  141.2280  151.4700  134.5980 O   0  0  0  0  0  0  0  0  0  0  0  0
  143.2990  151.1340  133.3330 O   0  0  0  0  0  0  0  0  0  0  0  0
  141.8180  153.3040  132.7170 C   0  0  0  0  0  0  0  0  0  0  0  0
  140.6510  154.0470  133.3050 C   0  0  0  0  0  0  0  0  0  0  0  0
  139.4740  153.7480  132.9650 O   0  0  0  0  0  0  0  0  0  0  0  0
  140.8740  155.2090  134.1190 N   0  0  0  0  0  0  0  0  0  0  0  0
  141.6080  155.3110  135.2620 C   0  0  0  0  0  0  0  0  0  0  0  0
  142.2130  154.1890  136.0090 C   0  0  0  0  0  0  0  0  0  0  0  0
  143.2740  153.4240  135.4460 N   0  0  0  0  0  0  0  0  0  0  0  0
  141.7610  153.8770  137.1430 O   0  0  0  0  0  0  0  0  0  0  0  0
  141.6600  156.6370  135.6910 C   0  0  0  0  0  0  0  0  0  0  0  0
  140.9200  157.3460  134.7710 C   0  0  0  0  0  0  0  0  0  0  0  0
  140.6510  158.7090  134.6940 C   0  0  0  0  0  0  0  0  0  0  0  0
  139.8810  159.1690  133.6130 C   0  0  0  0  0  0  0  0  0  0  0  0
  139.3840  158.2640  132.6390 C   0  0  0  0  0  0  0  0  0  0  0  0
  138.6080  158.7780  131.4520 C   0  0  0  0  0  0  0  0  0  0  0  0
  137.2710  158.9320  131.7710 F   0  0  0  0  0  0  0  0  0  0  0  0
  138.7230  157.8770  130.4090 F   0  0  0  0  0  0  0  0  0  0  0  0
  139.0990  160.0070  131.0430 F   0  0  0  0  0  0  0  0  0  0  0  0
  139.6990  156.8890  132.7400 C   0  0  0  0  0  0  0  0  0  0  0  0
  140.4570  156.4610  133.8350 C   0  0  0  0  0  0  0  0  0  0  0  0
  141.4692  148.8576  133.3031 H   0  0  0  0  0  0  0  0  0  0  0  0
  140.6498  148.4521  131.7568 H   0  0  0  0  0  0  0  0  0  0  0  0
  142.3803  148.9340  131.7568 H   0  0  0  0  0  0  0  0  0  0  0  0
  141.2658  150.8873  131.0483 H   0  0  0  0  0  0  0  0  0  0  0  0
  139.2266  150.7531  133.2961 H   0  0  0  0  0  0  0  0  0  0  0  0
  139.1585  151.6637  131.7492 H   0  0  0  0  0  0  0  0  0  0  0  0
  138.9673  149.8776  131.7492 H   0  0  0  0  0  0  0  0  0  0  0  0
  142.7480  153.7994  133.0327 H   0  0  0  0  0  0  0  0  0  0  0  0
  141.7075  153.3161  131.6226 H   0  0  0  0  0  0  0  0  0  0  0  0
  143.0900  152.5000  134.9950 H   0  0  0  0  0  0  0  0  0  0  0  0
  142.1810  157.0323  136.5755 H   0  0  0  0  0  0  0  0  0  0  0  0
  141.0299  159.4053  135.4566 H   0  0  0  0  0  0  0  0  0  0  0  0
  139.6607  160.2427  133.5202 H   0  0  0  0  0  0  0  0  0  0  0  0
  139.3567  156.1744  131.9770 H   0  0  0  0  0  0  0  0  0  0  0  0
  1  2  1  0
  2  3  1  0
  2  4  1  0
  4  5  2  0
  4  6  2  0
  4  7  1  0
  7  8  1  0
  8  9  2  0
  8 10  1  0
 10 11  1  0
 11 12  1  0
 12 13  1  0
 12 14  2  0
 11 15  2  0
 15 16  1  0
 16 17  2  0
 17 18  1  0
 18 19  2  0
 19 20  1  0
 20 21  1  0
 20 22  1  0
 20 23  1  0
 19 24  1  0
 24 25  2  0
 25 10  1  0
 25 16  1  0
  1 26  1  0
  1 27  1  0
  1 28  1  0
  2 29  1  0
  3 30  1  0
  3 31  1  0
  3 32  1  0
  7 33  1  0
  7 34  1  0
 13 35  1  0
 15 36  1  0
 17 37  1  0
 18 38  1  0
 24 39  1  0
M  CHG  1  13  -1
M  END
>  <UniqueID>  (91) 
91

>  <SMILES>  (91) 
CC(C)S(=O)(=O)CC(=O)n1c(C([NH-])=O)cc2ccc(C(F)(F)F)cc21

>  <Energy>  (91) 
68.53815662649272

>  <Genealogy>  (91) 
CC(C)S(=O)(=O)CC(=O)n1c(C([NH-])=O)cc2ccc(C(F)(F)F)cc21 (protonated)
CC(C)S(=O)(=O)CC(=O)n1c(C([NH-])=O)cc2ccc(C(F)(F)F)cc21 (3D coordinates assigned)
CC(C)S(=O)(=O)CC(=O)n1c(C([NH-])=O)cc2ccc(C(F)(F)F)cc21 (optimized conformer: 68.53815662649272 kcal/mol)

>  <smiles>  (91) 
CC(C)S(=O)(=O)CC(=O)n1c(C(N)=O)cc2ccc(C(F)(F)F)cc21

>  <score_type>  (91) 
oracle

>  <origin>  (91) 
adg

>  <m_score__min__energy>  (91) 
-6.7300000000000004

>  <m_primary>  (91) 
energy

$$$$
93:0
     RDKit          3D

 38 39  0  0  0  0  0  0  0  0999 V2000
  140.5130  160.5200  132.9950 C   0  0  0  0  0  0  0  0  0  0  0  0
  141.8600  160.8470  133.6300 C   0  0  0  0  0  0  0  0  0  0  0  0
  142.7360  159.6240  133.6790 C   0  0  0  0  0  0  0  0  0  0  0  0
  142.1860  158.3700  134.0400 C   0  0  0  0  0  0  0  0  0  0  0  0
  142.9980  157.2250  134.1070 C   0  0  0  0  0  0  0  0  0  0  0  0
  144.3520  157.3690  133.8230 C   0  0  0  0  0  0  0  0  0  0  0  0
  145.3530  156.4250  133.7890 C   0  0  0  0  0  0  0  0  0  0  0  0
  146.5080  157.1230  133.4410 C   0  0  0  0  0  0  0  0  0  0  0  0
  147.8530  156.5090  133.3740 C   0  0  0  0  0  0  0  0  0  0  0  0
  148.6800  156.6870  132.2240 N   0  0  0  0  0  0  0  0  0  0  0  0
  148.2680  155.7930  134.3240 O   0  0  0  0  0  0  0  0  0  0  0  0
  146.2320  158.4460  133.2650 N   0  0  0  0  0  0  0  0  0  0  0  0
  147.1370  159.4760  132.8310 C   0  0  0  0  0  0  0  0  0  0  0  0
  147.3910  160.4480  133.5940 O   0  0  0  0  0  0  0  0  0  0  0  0
  147.7190  159.3920  131.5590 O   0  0  0  0  0  0  0  0  0  0  0  0
  149.0690  159.6340  131.2730 C   0  0  0  0  0  0  0  0  0  0  0  0
  149.9530  158.7630  131.5030 O   0  0  0  0  0  0  0  0  0  0  0  0
  149.4680  160.9750  130.7340 C   0  0  1  0  0  0  0  0  0  0  0  0
  149.6240  160.9020  129.2140 C   0  0  0  0  0  0  0  0  0  0  0  0
  148.4920  161.9250  131.0750 O   0  0  0  0  0  0  0  0  0  0  0  0
  144.9080  158.5820  133.5020 C   0  0  0  0  0  0  0  0  0  0  0  0
  144.1180  159.7350  133.4100 C   0  0  0  0  0  0  0  0  0  0  0  0
  139.7693  160.3395  133.7851 H   0  0  0  0  0  0  0  0  0  0  0  0
  140.1871  161.3651  132.3708 H   0  0  0  0  0  0  0  0  0  0  0  0
  140.6108  159.6195  132.3708 H   0  0  0  0  0  0  0  0  0  0  0  0
  142.3600  161.6257  133.0354 H   0  0  0  0  0  0  0  0  0  0  0  0
  141.6899  161.2016  134.6573 H   0  0  0  0  0  0  0  0  0  0  0  0
  141.1132  158.2914  134.2701 H   0  0  0  0  0  0  0  0  0  0  0  0
  142.5759  156.2454  134.3757 H   0  0  0  0  0  0  0  0  0  0  0  0
  145.2609  155.3480  133.9932 H   0  0  0  0  0  0  0  0  0  0  0  0
  148.3900  157.3100  131.4380 H   0  0  0  0  0  0  0  0  0  0  0  0
  149.6140  156.2220  132.1740 H   0  0  0  0  0  0  0  0  0  0  0  0
  150.4317  161.2728  131.1728 H   0  0  0  0  0  0  0  0  0  0  0  0
  150.5947  160.4476  128.9664 H   0  0  0  0  0  0  0  0  0  0  0  0
  148.8140  160.2895  128.7913 H   0  0  0  0  0  0  0  0  0  0  0  0
  149.5755  161.9164  128.7913 H   0  0  0  0  0  0  0  0  0  0  0  0
  147.9300  161.5150  131.7840 H   0  0  0  0  0  0  0  0  0  0  0  0
  144.5629  160.7027  133.1351 H   0  0  0  0  0  0  0  0  0  0  0  0
  1  2  1  0
  2  3  1  0
  3  4  2  0
  4  5  1  0
  5  6  2  0
  6  7  1  0
  7  8  2  0
  8  9  1  0
  9 10  1  0
  9 11  2  0
  8 12  1  0
 12 13  1  0
 13 14  2  0
 13 15  1  0
 15 16  1  0
 16 17  2  0
 16 18  1  0
 18 19  1  0
 18 20  1  0
 12 21  1  0
 21 22  2  0
 22  3  1  0
 21  6  1  0
  1 23  1  0
  1 24  1  0
  1 25  1  0
  2 26  1  0
  2 27  1  0
  4 28  1  0
  5 29  1  0
  7 30  1  0
 10 31  1  0
 10 32  1  0
 18 33  1  1
 19 34  1  0
 19 35  1  0
 19 36  1  0
 20 37  1  0
 22 38  1  0
M  END
>  <UniqueID>  (92) 
92

>  <SMILES>  (92) 
CCc1ccc2cc(C(N)=O)n(C(=O)OC(=O)[C@@H](C)O)c2c1

>  <Energy>  (92) 
70.82588566779238

>  <Genealogy>  (92) 
CCc1ccc2cc(C(N)=O)n(C(=O)OC(=O)[C@@H](C)O)c2c1 (chirality)
CCc1ccc2cc(C(N)=O)n(C(=O)OC(=O)[C@@H](C)O)c2c1 (3D coordinates assigned)
CCc1ccc2cc(C(N)=O)n(C(=O)OC(=O)[C@@H](C)O)c2c1 (optimized conformer: 70.82588566779238 kcal/mol)

>  <smiles>  (92) 
CCc1ccc2cc(C(N)=O)n(C(=O)OC(=O)C(C)O)c2c1

>  <score_type>  (92) 
oracle

>  <origin>  (92) 
adg

>  <m_score__min__energy>  (92) 
-7.2000000000000002

>  <m_primary>  (92) 
energy

$$$$
94:0
     RDKit          3D

 57 58  0  0  0  0  0  0  0  0999 V2000
  141.6440  159.3060  136.7160 C   0  0  0  0  0  0  0  0  0  0  0  0
  141.3080  157.8420  137.0570 C   0  0  0  0  0  0  0  0  0  0  0  0
  141.5480  157.5630  138.5540 C   0  0  0  0  0  0  0  0  0  0  0  0
  139.8270  157.5840  136.7350 C   0  0  0  0  0  0  0  0  0  0  0  0
  142.0800  156.9430  136.2470 O   0  0  0  0  0  0  0  0  0  0  0  0
  142.1630  155.5510  136.3990 C   0  0  0  0  0  0  0  0  0  0  0  0
  141.4340  154.9420  137.2290 O   0  0  0  0  0  0  0  0  0  0  0  0
  143.0880  154.8200  135.5870 N   0  0  0  0  0  0  0  0  0  0  0  0
  143.1930  153.3620  135.6300 C   0  0  0  0  0  0  0  0  0  0  0  0
  142.4590  152.7330  134.4860 C   0  0  0  0  0  0  0  0  0  0  0  0
  141.6530  151.7900  134.7130 O   0  0  0  0  0  0  0  0  0  0  0  0
  142.6910  153.1710  133.1750 O   0  0  0  0  0  0  0  0  0  0  0  0
  143.9940  153.3200  132.6180 C   0  0  0  0  0  0  0  0  0  0  0  0
  144.4920  154.7190  132.8000 C   0  0  0  0  0  0  0  0  0  0  0  0
  144.0340  155.6420  132.0730 O   0  0  0  0  0  0  0  0  0  0  0  0
  145.4190  154.9990  133.8090 O   0  0  0  0  0  0  0  0  0  0  0  0
  145.8460  156.3220  134.1210 C   0  0  0  0  0  0  0  0  0  0  0  0
  144.7170  157.1790  134.2670 O   0  0  0  0  0  0  0  0  0  0  0  0
  144.5460  158.3410  133.5070 C   0  0  0  0  0  0  0  0  0  0  0  0
  145.5130  158.8250  132.8560 O   0  0  0  0  0  0  0  0  0  0  0  0
  143.2710  159.0010  133.4910 N   0  0  0  0  0  0  0  0  0  0  0  0
  143.0090  160.3250  133.6820 C   0  0  0  0  0  0  0  0  0  0  0  0
  144.0140  161.4040  133.7900 C   0  0  0  0  0  0  0  0  0  0  0  0
  145.3930  161.1070  133.9880 N   0  0  0  0  0  0  0  0  0  0  0  0
  143.6550  162.6050  133.6630 O   0  0  0  0  0  0  0  0  0  0  0  0
  141.6350  160.5530  133.6940 C   0  0  0  0  0  0  0  0  0  0  0  0
  141.0580  159.3200  133.4970 C   0  0  0  0  0  0  0  0  0  0  0  0
  139.7150  158.9570  133.4390 C   0  0  0  0  0  0  0  0  0  0  0  0
  139.4070  157.5980  133.2600 C   0  0  0  0  0  0  0  0  0  0  0  0
  140.4390  156.6320  133.1530 C   0  0  0  0  0  0  0  0  0  0  0  0
  140.0880  155.1810  132.9820 C   0  0  0  0  0  0  0  0  0  0  0  0
  140.4830  154.4720  134.1010 F   0  0  0  0  0  0  0  0  0  0  0  0
  138.7210  155.0480  132.8160 F   0  0  0  0  0  0  0  0  0  0  0  0
  141.7900  157.0370  133.2190 C   0  0  0  0  0  0  0  0  0  0  0  0
  142.0670  158.4000  133.3760 C   0  0  0  0  0  0  0  0  0  0  0  0
  141.7753  159.8783  137.6462 H   0  0  0  0  0  0  0  0  0  0  0  0
  142.5737  159.3417  136.1291 H   0  0  0  0  0  0  0  0  0  0  0  0
  140.8229  159.7435  136.1291 H   0  0  0  0  0  0  0  0  0  0  0  0
  140.9483  158.2601  139.1576 H   0  0  0  0  0  0  0  0  0  0  0  0
  141.2526  156.5292  138.7863 H   0  0  0  0  0  0  0  0  0  0  0  0
  142.6144  157.7006  138.7863 H   0  0  0  0  0  0  0  0  0  0  0  0
  139.2598  157.4852  137.6723 H   0  0  0  0  0  0  0  0  0  0  0  0
  139.4266  158.4259  136.1512 H   0  0  0  0  0  0  0  0  0  0  0  0
  139.7349  156.6563  136.1512 H   0  0  0  0  0  0  0  0  0  0  0  0
  143.7110  155.3500  134.9380 H   0  0  0  0  0  0  0  0  0  0  0  0
  144.2540  153.0768  135.5760 H   0  0  0  0  0  0  0  0  0  0  0  0
  142.7438  153.0076  136.5695 H   0  0  0  0  0  0  0  0  0  0  0  0
  144.6825  152.6239  133.1194 H   0  0  0  0  0  0  0  0  0  0  0  0
  143.9448  153.1002  131.5413 H   0  0  0  0  0  0  0  0  0  0  0  0
  146.4163  156.3080  135.0615 H   0  0  0  0  0  0  0  0  0  0  0  0
  146.4802  156.6977  133.3045 H   0  0  0  0  0  0  0  0  0  0  0  0
  146.0230  160.9120  133.1780 H   0  0  0  0  0  0  0  0  0  0  0  0
  141.1203  161.5153  133.8318 H   0  0  0  0  0  0  0  0  0  0  0  0
  138.9195  159.7112  133.5305 H   0  0  0  0  0  0  0  0  0  0  0  0
  138.3554  157.2806  133.2023 H   0  0  0  0  0  0  0  0  0  0  0  0
  140.6057  154.7872  132.0949 H   0  0  0  0  0  0  0  0  0  0  0  0
  142.6039  156.3003  133.1488 H   0  0  0  0  0  0  0  0  0  0  0  0
  1  2  1  0
  2  3  1  0
  2  4  1  0
  2  5  1  0
  5  6  1  0
  6  7  2  0
  6  8  1  0
  8  9  1  0
  9 10  1  0
 10 11  2  0
 10 12  1  0
 12 13  1  0
 13 14  1  0
 14 15  2  0
 14 16  1  0
 16 17  1  0
 17 18  1  0
 18 19  1  0
 19 20  2  0
 19 21  1  0
 21 22  1  0
 22 23  1  0
 23 24  1  0
 23 25  2  0
 22 26  2  0
 26 27  1  0
 27 28  2  0
 28 29  1  0
 29 30  2  0
 30 31  1  0
 31 32  1  0
 31 33  1  0
 30 34  1  0
 34 35  2  0
 35 21  1  0
 35 27  1  0
  1 36  1  0
  1 37  1  0
  1 38  1  0
  3 39  1  0
  3 40  1  0
  3 41  1  0
  4 42  1  0
  4 43  1  0
  4 44  1  0
  8 45  1  0
  9 46  1  0
  9 47  1  0
 13 48  1  0
 13 49  1  0
 17 50  1  0
 17 51  1  0
 24 52  1  0
 26 53  1  0
 28 54  1  0
 29 55  1  0
 31 56  1  0
 34 57  1  0
M  CHG  1  24  -1
M  END
>  <UniqueID>  (93) 
93

>  <SMILES>  (93) 
CC(C)(C)OC(=O)NCC(=O)OCC(=O)OCOC(=O)n1c(C([NH-])=O)cc2ccc(C(F)F)cc21

>  <Energy>  (93) 
81.58976635226063

>  <Genealogy>  (93) 
CC(C)(C)OC(=O)NCC(=O)OCC(=O)OCOC(=O)n1c(C([NH-])=O)cc2ccc(C(F)F)cc21 (protonated)
CC(C)(C)OC(=O)NCC(=O)OCC(=O)OCOC(=O)n1c(C([NH-])=O)cc2ccc(C(F)F)cc21 (3D coordinates assigned)
CC(C)(C)OC(=O)NCC(=O)OCC(=O)OCOC(=O)n1c(C([NH-])=O)cc2ccc(C(F)F)cc21 (optimized conformer: 81.58976635226063 kcal/mol)

>  <smiles>  (93) 
CC(C)(C)OC(=O)NCC(=O)OCC(=O)OCOC(=O)n1c(C(N)=O)cc2ccc(C(F)F)cc21

>  <score_type>  (93) 
oracle

>  <origin>  (93) 
adg

>  <m_score__min__energy>  (93) 
-7.4199999999999999

>  <m_primary>  (93) 
energy

$$$$
95:0
     RDKit          3D

 61 63  0  0  0  0  0  0  0  0999 V2000
  145.8910  153.8590  133.6560 C   0  0  0  0  0  0  0  0  0  0  0  0
  147.3340  153.7740  134.1820 C   0  0  2  0  0  0  0  0  0  0  0  0
  147.3660  154.0850  135.6660 C   0  0  0  0  0  0  0  0  0  0  0  0
  148.1090  155.0080  136.0970 O   0  0  0  0  0  0  0  0  0  0  0  0
  146.6280  153.3320  136.5720 O   0  0  0  0  0  0  0  0  0  0  0  0
  148.2860  154.5930  133.3730 N   0  0  1  0  0  0  0  0  0  0  0  0
  148.9670  153.8540  132.2890 C   0  0  0  0  0  0  0  0  0  0  0  0
  147.6380  155.7880  132.8610 C   0  0  0  0  0  0  0  0  0  0  0  0
  147.0100  155.7520  131.7630 O   0  0  0  0  0  0  0  0  0  0  0  0
  147.6890  157.0600  133.6160 C   0  0  0  0  0  0  0  0  0  0  0  0
  148.6190  157.2640  134.4420 O   0  0  0  0  0  0  0  0  0  0  0  0
  146.7380  158.1060  133.3570 N   0  0  0  0  0  0  0  0  0  0  0  0
  146.9760  159.3900  132.9720 C   0  0  0  0  0  0  0  0  0  0  0  0
  148.2950  159.9470  132.6170 C   0  0  0  0  0  0  0  0  0  0  0  0
  149.4700  159.1460  132.7590 N   0  0  0  0  0  0  0  0  0  0  0  0
  148.4010  161.1290  132.1980 O   0  0  0  0  0  0  0  0  0  0  0  0
  145.7830  160.1070  132.8990 C   0  0  0  0  0  0  0  0  0  0  0  0
  144.7970  159.2090  133.2470 C   0  0  0  0  0  0  0  0  0  0  0  0
  143.4210  159.3810  133.3550 C   0  0  0  0  0  0  0  0  0  0  0  0
  142.6500  158.2780  133.7610 C   0  0  0  0  0  0  0  0  0  0  0  0
  143.2620  157.0350  134.0630 C   0  0  0  0  0  0  0  0  0  0  0  0
  142.4620  155.9140  134.4900 N   0  0  0  0  0  0  0  0  0  0  0  0
  141.1310  155.6830  133.9170 C   0  0  0  0  0  0  0  0  0  0  0  0
  141.0510  154.2490  133.3900 C   0  0  0  0  0  0  0  0  0  0  0  0
  141.5170  153.2840  134.3970 N   0  0  0  0  0  0  0  0  0  0  0  0
  141.2810  151.8820  134.1720 C   0  0  0  0  0  0  0  0  0  0  0  0
  141.3440  151.0680  135.1330 O   0  0  0  0  0  0  0  0  0  0  0  0
  140.9520  151.4350  132.8860 O   0  0  0  0  0  0  0  0  0  0  0  0
  141.6110  150.3530  132.2290 C   0  0  0  0  0  0  0  0  0  0  0  0
  141.0390  149.0060  132.6680 C   0  0  0  0  0  0  0  0  0  0  0  0
  139.9810  149.1950  133.5640 O   0  0  0  0  0  0  0  0  0  0  0  0
  142.0730  153.7540  135.6780 C   0  0  0  0  0  0  0  0  0  0  0  0
  143.0130  154.9500  135.4550 C   0  0  0  0  0  0  0  0  0  0  0  0
  144.6630  156.9000  133.9350 C   0  0  0  0  0  0  0  0  0  0  0  0
  145.4020  158.0090  133.5150 C   0  0  0  0  0  0  0  0  0  0  0  0
  145.1930  153.9001  134.5052 H   0  0  0  0  0  0  0  0  0  0  0  0
  145.7769  154.7654  133.0433 H   0  0  0  0  0  0  0  0  0  0  0  0
  145.6712  152.9722  133.0433 H   0  0  0  0  0  0  0  0  0  0  0  0
  147.6914  152.7408  134.0606 H   0  0  0  0  0  0  0  0  0  0  0  0
  149.0510  154.9060  134.0190 H   0  0  0  0  0  0  0  0  0  0  0  0
  149.6513  153.1114  132.7252 H   0  0  0  0  0  0  0  0  0  0  0  0
  148.2178  153.3417  131.6676 H   0  0  0  0  0  0  0  0  0  0  0  0
  149.5387  154.5590  131.6676 H   0  0  0  0  0  0  0  0  0  0  0  0
  149.6210  158.5640  133.6110 H   0  0  0  0  0  0  0  0  0  0  0  0
  145.6556  161.1641  132.6226 H   0  0  0  0  0  0  0  0  0  0  0  0
  142.9509  160.3497  133.1298 H   0  0  0  0  0  0  0  0  0  0  0  0
  141.5580  158.3804  133.8455 H   0  0  0  0  0  0  0  0  0  0  0  0
  140.3656  155.8329  134.6927 H   0  0  0  0  0  0  0  0  0  0  0  0
  140.9565  156.3896  133.0923 H   0  0  0  0  0  0  0  0  0  0  0  0
  140.0069  154.0202  133.1304 H   0  0  0  0  0  0  0  0  0  0  0  0
  141.6985  154.1674  132.5045 H   0  0  0  0  0  0  0  0  0  0  0  0
  141.4803  150.4607  131.1421 H   0  0  0  0  0  0  0  0  0  0  0  0
  142.6774  150.3815  132.4974 H   0  0  0  0  0  0  0  0  0  0  0  0
  140.6733  148.4621  131.7846 H   0  0  0  0  0  0  0  0  0  0  0  0
  141.8304  148.4273  133.1667 H   0  0  0  0  0  0  0  0  0  0  0  0
  139.9250  150.1730  133.7290 H   0  0  0  0  0  0  0  0  0  0  0  0
  141.2488  154.0606  136.3388 H   0  0  0  0  0  0  0  0  0  0  0  0
  142.6453  152.9347  136.1375 H   0  0  0  0  0  0  0  0  0  0  0  0
  143.1710  155.4611  136.4162 H   0  0  0  0  0  0  0  0  0  0  0  0
  143.9596  154.5657  135.0472 H   0  0  0  0  0  0  0  0  0  0  0  0
  145.1597  155.9448  134.1606 H   0  0  0  0  0  0  0  0  0  0  0  0
  1  2  1  0
  2  3  1  0
  3  4  2  0
  3  5  1  0
  2  6  1  0
  6  7  1  0
  6  8  1  0
  8  9  2  0
  8 10  1  0
 10 11  2  0
 10 12  1  0
 12 13  1  0
 13 14  1  0
 14 15  1  0
 14 16  2  0
 13 17  2  0
 17 18  1  0
 18 19  2  0
 19 20  1  0
 20 21  2  0
 21 22  1  0
 22 23  1  0
 23 24  1  0
 24 25  1  0
 25 26  1  0
 26 27  2  0
 26 28  1  0
 28 29  1  0
 29 30  1  0
 30 31  1  0
 25 32  1  0
 32 33  1  0
 21 34  1  0
 34 35  2  0
 35 12  1  0
 35 18  1  0
 33 22  1  0
  1 36  1  0
  1 37  1  0
  1 38  1  0
  2 39  1  1
  6 40  1  1
  7 41  1  0
  7 42  1  0
  7 43  1  0
 15 44  1  0
 17 45  1  0
 19 46  1  0
 20 47  1  0
 23 48  1  0
 23 49  1  0
 24 50  1  0
 24 51  1  0
 29 52  1  0
 29 53  1  0
 30 54  1  0
 30 55  1  0
 31 56  1  0
 32 57  1  0
 32 58  1  0
 33 59  1  0
 33 60  1  0
 34 61  1  0
M  CHG  3   5  -1   6   1  15  -1
M  END
>  <UniqueID>  (94) 
94

>  <SMILES>  (94) 
C[C@H](C(=O)[O-])[N@@H+](C)C(=O)C(=O)n1c(C([NH-])=O)cc2ccc(N3CCN(C(=O)OCCO)CC3)cc21

>  <Energy>  (94) 
108.82023008550155

>  <Genealogy>  (94) 
CC(C(=O)[O-])[NH+](C)C(=O)C(=O)n1c(C([NH-])=O)cc2ccc(N3CCN(C(=O)OCCO)CC3)cc21 (protonated)
C[C@H](C(=O)[O-])[N@@H+](C)C(=O)C(=O)n1c(C([NH-])=O)cc2ccc(N3CCN(C(=O)OCCO)CC3)cc21 (chirality)
C[C@H](C(=O)[O-])[N@@H+](C)C(=O)C(=O)n1c(C([NH-])=O)cc2ccc(N3CCN(C(=O)OCCO)CC3)cc21 (3D coordinates assigned)
C[C@H](C(=O)[O-])[N@@H+](C)C(=O)C(=O)n1c(C([NH-])=O)cc2ccc(N3CCN(C(=O)OCCO)CC3)cc21 (nonaromatic ring conformer: 108.82023008550155 kcal/mol)

>  <smiles>  (94) 
CC(C(=O)O)N(C)C(=O)C(=O)n1c(C(N)=O)cc2ccc(N3CCN(C(=O)OCCO)CC3)cc21

>  <score_type>  (94) 
oracle

>  <origin>  (94) 
adg

>  <m_score__min__energy>  (94) 
-8.0600000000000005

>  <m_primary>  (94) 
energy

$$$$
96:0
     RDKit          3D

 46 48  0  0  0  0  0  0  0  0999 V2000
  144.9460  158.1940  132.9650 N   0  0  0  0  0  0  0  0  0  0  0  0
  143.6530  157.9010  133.4860 C   0  0  0  0  0  0  0  0  0  0  0  0
  142.9710  158.8280  133.9980 O   0  0  0  0  0  0  0  0  0  0  0  0
  143.0840  156.5390  133.3950 C   0  0  0  0  0  0  0  0  0  0  0  0
  141.7240  156.2630  133.5200 C   0  0  0  0  0  0  0  0  0  0  0  0
  141.6040  154.9090  133.3100 C   0  0  0  0  0  0  0  0  0  0  0  0
  140.4750  154.0960  133.3370 C   0  0  0  0  0  0  0  0  0  0  0  0
  140.6490  152.7200  133.1150 C   0  0  0  0  0  0  0  0  0  0  0  0
  141.9400  152.1820  132.8680 C   0  0  0  0  0  0  0  0  0  0  0  0
  142.1450  150.7020  132.6670 C   0  0  0  0  0  0  0  0  0  0  0  0
  141.6180  150.0050  133.7390 F   0  0  0  0  0  0  0  0  0  0  0  0
  143.4890  150.3860  132.5600 F   0  0  0  0  0  0  0  0  0  0  0  0
  141.5000  150.3050  131.5110 F   0  0  0  0  0  0  0  0  0  0  0  0
  143.0620  153.0400  132.8700 C   0  0  0  0  0  0  0  0  0  0  0  0
  142.8580  154.4090  133.0730 C   0  0  0  0  0  0  0  0  0  0  0  0
  143.7790  155.3980  133.1220 N   0  0  0  0  0  0  0  0  0  0  0  0
  145.2040  155.2530  132.9990 C   0  0  0  0  0  0  0  0  0  0  0  0
  145.7480  155.3860  131.8700 O   0  0  0  0  0  0  0  0  0  0  0  0
  146.0380  154.8630  134.1840 C   0  0  0  0  0  0  0  0  0  0  0  0
  147.6630  155.6240  134.1190 S   0  0  0  0  0  0  0  0  0  0  0  0
  148.1090  155.9100  135.5270 O   0  0  0  0  0  0  0  0  0  0  0  0
  148.6460  154.6730  133.4940 O   0  0  0  0  0  0  0  0  0  0  0  0
  147.6560  157.1200  133.2130 N   0  0  0  0  0  0  0  0  0  0  0  0
  147.7150  158.2800  134.1200 C   0  0  0  0  0  0  0  0  0  0  0  0
  147.4890  159.6000  133.3530 C   0  0  0  0  0  0  0  0  0  0  0  0
  147.8970  159.5040  131.8740 C   0  0  0  0  0  0  0  0  0  0  0  0
  149.0760  158.5470  131.6870 C   0  0  0  0  0  0  0  0  0  0  0  0
  148.7630  157.1330  132.2270 C   0  0  0  0  0  0  0  0  0  0  0  0
  145.4830  157.4780  132.4260 H   0  0  0  0  0  0  0  0  0  0  0  0
  140.9168  156.9771  133.7401 H   0  0  0  0  0  0  0  0  0  0  0  0
  139.4770  154.5179  133.5264 H   0  0  0  0  0  0  0  0  0  0  0  0
  139.7756  152.0516  133.1327 H   0  0  0  0  0  0  0  0  0  0  0  0
  144.0750  152.6401  132.7152 H   0  0  0  0  0  0  0  0  0  0  0  0
  145.5276  155.1866  135.1031 H   0  0  0  0  0  0  0  0  0  0  0  0
  146.1662  153.7706  134.1732 H   0  0  0  0  0  0  0  0  0  0  0  0
  146.7440  157.1450  132.6970 H   0  0  0  0  0  0  0  0  0  0  0  0
  146.9359  158.1740  134.8892 H   0  0  0  0  0  0  0  0  0  0  0  0
  148.7133  158.3114  134.5809 H   0  0  0  0  0  0  0  0  0  0  0  0
  146.4216  159.8603  133.4074 H   0  0  0  0  0  0  0  0  0  0  0  0
  148.1198  160.3693  133.8224 H   0  0  0  0  0  0  0  0  0  0  0  0
  147.0409  159.1375  131.2885 H   0  0  0  0  0  0  0  0  0  0  0  0
  148.2016  160.5037  131.5308 H   0  0  0  0  0  0  0  0  0  0  0  0
  149.3082  158.4744  130.6142 H   0  0  0  0  0  0  0  0  0  0  0  0
  149.9312  158.9458  132.2523 H   0  0  0  0  0  0  0  0  0  0  0  0
  148.4854  156.4882  131.3802 H   0  0  0  0  0  0  0  0  0  0  0  0
  149.6653  156.7707  132.7414 H   0  0  0  0  0  0  0  0  0  0  0  0
  1  2  1  0
  2  3  2  0
  2  4  1  0
  4  5  2  0
  5  6  1  0
  6  7  2  0
  7  8  1  0
  8  9  2  0
  9 10  1  0
 10 11  1  0
 10 12  1  0
 10 13  1  0
  9 14  1  0
 14 15  2  0
 15 16  1  0
 16 17  1  0
 17 18  2  0
 17 19  1  0
 19 20  1  0
 20 21  2  0
 20 22  2  0
 20 23  1  0
 23 24  1  0
 24 25  1  0
 25 26  1  0
 26 27  1  0
 27 28  1  0
 16  4  1  0
 28 23  1  0
 15  6  1  0
  1 29  1  0
  5 30  1  0
  7 31  1  0
  8 32  1  0
 14 33  1  0
 19 34  1  0
 19 35  1  0
 23 36  1  0
 24 37  1  0
 24 38  1  0
 25 39  1  0
 25 40  1  0
 26 41  1  0
 26 42  1  0
 27 43  1  0
 27 44  1  0
 28 45  1  0
 28 46  1  0
M  CHG  2   1  -1  23   1
M  END
>  <UniqueID>  (95) 
95

>  <SMILES>  (95) 
[NH-]C(=O)c1cc2ccc(C(F)(F)F)cc2n1C(=O)CS(=O)(=O)[NH+]1CCCCC1

>  <Energy>  (95) 
85.63500173446909

>  <Genealogy>  (95) 
[NH-]C(=O)c1cc2ccc(C(F)(F)F)cc2n1C(=O)CS(=O)(=O)[NH+]1CCCCC1 (protonated)
[NH-]C(=O)c1cc2ccc(C(F)(F)F)cc2n1C(=O)CS(=O)(=O)[NH+]1CCCCC1 (3D coordinates assigned)
[NH-]C(=O)c1cc2ccc(C(F)(F)F)cc2n1C(=O)CS(=O)(=O)[NH+]1CCCCC1 (nonaromatic ring conformer: 85.63500173446909 kcal/mol)

>  <smiles>  (95) 
NC(=O)c1cc2ccc(C(F)(F)F)cc2n1C(=O)CS(=O)(=O)N1CCCCC1

>  <score_type>  (95) 
oracle

>  <origin>  (95) 
adg

>  <m_score__min__energy>  (95) 
-7.1900000000000004

>  <m_primary>  (95) 
energy

$$$$
97:0
     RDKit          3D

 57 60  0  0  0  0  0  0  0  0999 V2000
  139.8530  154.4640  140.5250 C   0  0  0  0  0  0  0  0  0  0  0  0
  139.8850  154.3260  139.1100 O   0  0  0  0  0  0  0  0  0  0  0  0
  140.9900  154.7050  138.3380 C   0  0  0  0  0  0  0  0  0  0  0  0
  141.8270  153.8370  137.9670 O   0  0  0  0  0  0  0  0  0  0  0  0
  141.1760  156.1220  137.9600 C   0  0  0  0  0  0  0  0  0  0  0  0
  141.5580  157.0960  138.9130 C   0  0  0  0  0  0  0  0  0  0  0  0
  141.7310  158.4470  138.5360 C   0  0  0  0  0  0  0  0  0  0  0  0
  141.5270  158.8510  137.2050 C   0  0  0  0  0  0  0  0  0  0  0  0
  141.1550  157.8740  136.2820 C   0  0  0  0  0  0  0  0  0  0  0  0
  140.9850  156.5640  136.6450 C   0  0  0  0  0  0  0  0  0  0  0  0
  140.6440  155.8680  135.5830 O   0  0  0  0  0  0  0  0  0  0  0  0
  140.6070  156.7310  134.5840 C   0  0  0  0  0  0  0  0  0  0  0  0
  140.3260  156.4040  133.4010 O   0  0  0  0  0  0  0  0  0  0  0  0
  140.9070  157.9980  134.9640 N   0  0  0  0  0  0  0  0  0  0  0  0
  141.0570  159.1780  134.1100 C   0  0  0  0  0  0  0  0  0  0  0  0
  142.5140  159.5090  133.9410 C   0  0  0  0  0  0  0  0  0  0  0  0
  142.9290  160.8620  133.8600 C   0  0  0  0  0  0  0  0  0  0  0  0
  144.2760  161.1860  133.6290 C   0  0  0  0  0  0  0  0  0  0  0  0
  145.1830  160.1390  133.4860 C   0  0  0  0  0  0  0  0  0  0  0  0
  146.5290  160.1680  133.1990 C   0  0  0  0  0  0  0  0  0  0  0  0
  146.9190  158.8340  133.1340 C   0  0  0  0  0  0  0  0  0  0  0  0
  148.3090  158.4030  132.8850 C   0  0  0  0  0  0  0  0  0  0  0  0
  148.6170  157.4540  131.8620 N   0  0  0  0  0  0  0  0  0  0  0  0
  149.2350  158.8410  133.6190 O   0  0  0  0  0  0  0  0  0  0  0  0
  145.8590  158.0100  133.3600 N   0  0  0  0  0  0  0  0  0  0  0  0
  145.8290  156.5790  133.2380 C   0  0  0  0  0  0  0  0  0  0  0  0
  146.3520  156.0250  132.2340 O   0  0  0  0  0  0  0  0  0  0  0  0
  145.2200  155.8160  134.2460 O   0  0  0  0  0  0  0  0  0  0  0  0
  144.2620  154.7640  134.0560 C   0  0  0  0  0  0  0  0  0  0  0  0
  144.9700  153.4470  133.6890 C   0  0  0  0  0  0  0  0  0  0  0  0
  143.2370  155.1530  132.9740 C   0  0  0  0  0  0  0  0  0  0  0  0
  143.5240  154.5780  135.3920 C   0  0  0  0  0  0  0  0  0  0  0  0
  144.8020  158.8250  133.5770 C   0  0  0  0  0  0  0  0  0  0  0  0
  143.4630  158.4750  133.7880 C   0  0  0  0  0  0  0  0  0  0  0  0
  140.0778  153.4943  140.9931 H   0  0  0  0  0  0  0  0  0  0  0  0
  140.6031  155.2051  140.8382 H   0  0  0  0  0  0  0  0  0  0  0  0
  138.8533  154.7994  140.8382 H   0  0  0  0  0  0  0  0  0  0  0  0
  141.7221  156.7981  139.9591 H   0  0  0  0  0  0  0  0  0  0  0  0
  142.0281  159.1895  139.2912 H   0  0  0  0  0  0  0  0  0  0  0  0
  141.6562  159.9006  136.9023 H   0  0  0  0  0  0  0  0  0  0  0  0
  140.6134  158.9731  133.1245 H   0  0  0  0  0  0  0  0  0  0  0  0
  140.5452  160.0309  134.5797 H   0  0  0  0  0  0  0  0  0  0  0  0
  142.1884  161.6665  133.9793 H   0  0  0  0  0  0  0  0  0  0  0  0
  144.6042  162.2338  133.5631 H   0  0  0  0  0  0  0  0  0  0  0  0
  147.1612  161.0561  133.0524 H   0  0  0  0  0  0  0  0  0  0  0  0
  149.6110  157.2060  131.6600 H   0  0  0  0  0  0  0  0  0  0  0  0
  147.8610  156.9460  131.3530 H   0  0  0  0  0  0  0  0  0  0  0  0
  145.2557  152.9156  134.6088 H   0  0  0  0  0  0  0  0  0  0  0  0
  144.2890  152.8170  133.0980 H   0  0  0  0  0  0  0  0  0  0  0  0
  145.8712  153.6675  133.0980 H   0  0  0  0  0  0  0  0  0  0  0  0
  142.3119  155.5041  133.4546 H   0  0  0  0  0  0  0  0  0  0  0  0
  143.6522  155.9561  132.3474 H   0  0  0  0  0  0  0  0  0  0  0  0
  143.0149  154.2766  132.3474 H   0  0  0  0  0  0  0  0  0  0  0  0
  144.2218  154.7539  136.2239 H   0  0  0  0  0  0  0  0  0  0  0  0
  142.6916  155.2944  135.4539 H   0  0  0  0  0  0  0  0  0  0  0  0
  143.1306  153.5526  135.4539 H   0  0  0  0  0  0  0  0  0  0  0  0
  143.1575  157.4193  133.8335 H   0  0  0  0  0  0  0  0  0  0  0  0
  1  2  1  0
  2  3  1  0
  3  4  2  0
  3  5  1  0
  5  6  2  0
  6  7  1  0
  7  8  2  0
  8  9  1  0
  9 10  2  0
 10 11  1  0
 11 12  1  0
 12 13  2  0
 12 14  1  0
 14 15  1  0
 15 16  1  0
 16 17  2  0
 17 18  1  0
 18 19  2  0
 19 20  1  0
 20 21  2  0
 21 22  1  0
 22 23  1  0
 22 24  2  0
 21 25  1  0
 25 26  1  0
 26 27  2  0
 26 28  1  0
 28 29  1  0
 29 30  1  0
 29 31  1  0
 29 32  1  0
 25 33  1  0
 33 34  2  0
 10  5  1  0
 34 16  1  0
 14  9  1  0
 33 19  1  0
  1 35  1  0
  1 36  1  0
  1 37  1  0
  6 38  1  0
  7 39  1  0
  8 40  1  0
 15 41  1  0
 15 42  1  0
 17 43  1  0
 18 44  1  0
 20 45  1  0
 23 46  1  0
 23 47  1  0
 30 48  1  0
 30 49  1  0
 30 50  1  0
 31 51  1  0
 31 52  1  0
 31 53  1  0
 32 54  1  0
 32 55  1  0
 32 56  1  0
 34 57  1  0
M  END
>  <UniqueID>  (96) 
96

>  <SMILES>  (96) 
COC(=O)c1cccc2c1oc(=O)n2Cc1ccc2cc(C(N)=O)n(C(=O)OC(C)(C)C)c2c1

>  <Energy>  (96) 
132.52551438192535

>  <Genealogy>  (96) 
COC(=O)c1cccc2c1oc(=O)n2Cc1ccc2cc(C(N)=O)n(C(=O)OC(C)(C)C)c2c1 (3D coordinates assigned)
COC(=O)c1cccc2c1oc(=O)n2Cc1ccc2cc(C(N)=O)n(C(=O)OC(C)(C)C)c2c1 (optimized conformer: 132.52551438192535 kcal/mol)

>  <smiles>  (96) 
COC(=O)c1cccc2c1oc(=O)n2Cc1ccc2cc(C(N)=O)n(C(=O)OC(C)(C)C)c2c1

>  <score_type>  (96) 
oracle

>  <origin>  (96) 
adg

>  <m_score__min__energy>  (96) 
-8.5700000000000003

>  <m_primary>  (96) 
energy

$$$$
