0:0
     RDKit          3D

 41 42  0  0  0  0  0  0  0  0999 V2000
  138.7330  158.9800  130.2890 C   0  0  0  0  0  0  0  0  0  0  0  0
  139.3960  159.4170  131.8810 S   0  0  0  0  0  0  0  0  0  0  0  0
  138.9400  160.8020  132.2490 O   0  0  0  0  0  0  0  0  0  0  0  0
  140.8970  159.3970  131.8090 O   0  0  0  0  0  0  0  0  0  0  0  0
  138.8600  158.2520  133.1250 C   0  0  0  0  0  0  0  0  0  0  0  0
  139.5850  156.9130  132.9830 C   0  0  0  0  0  0  0  0  0  0  0  0
  139.8060  156.3430  134.2600 O   0  0  0  0  0  0  0  0  0  0  0  0
  141.0850  156.6890  134.7530 C   0  0  0  0  0  0  0  0  0  0  0  0
  141.7130  157.6390  133.8940 O   0  0  0  0  0  0  0  0  0  0  0  0
  143.0680  157.5780  133.5500 C   0  0  0  0  0  0  0  0  0  0  0  0
  143.5800  156.4890  133.1720 O   0  0  0  0  0  0  0  0  0  0  0  0
  143.8800  158.7580  133.6470 N   0  0  0  0  0  0  0  0  0  0  0  0
  143.4800  160.0300  133.9330 C   0  0  0  0  0  0  0  0  0  0  0  0
  142.1200  160.4410  134.3420 C   0  0  0  0  0  0  0  0  0  0  0  0
  141.4640  161.5030  133.6530 N   0  0  0  0  0  0  0  0  0  0  0  0
  141.5440  159.8910  135.3160 O   0  0  0  0  0  0  0  0  0  0  0  0
  144.5620  160.9070  133.8740 C   0  0  0  0  0  0  0  0  0  0  0  0
  145.6470  160.1260  133.5500 C   0  0  0  0  0  0  0  0  0  0  0  0
  146.9780  160.4810  133.3520 C   0  0  0  0  0  0  0  0  0  0  0  0
  147.8850  159.4670  132.9990 C   0  0  0  0  0  0  0  0  0  0  0  0
  147.4470  158.1290  132.8450 C   0  0  0  0  0  0  0  0  0  0  0  0
  148.4310  157.0640  132.4490 C   0  0  0  0  0  0  0  0  0  0  0  0
  148.5780  156.1570  133.4830 F   0  0  0  0  0  0  0  0  0  0  0  0
  149.6560  157.6420  132.1700 F   0  0  0  0  0  0  0  0  0  0  0  0
  146.0870  157.8070  133.0500 C   0  0  0  0  0  0  0  0  0  0  0  0
  145.2100  158.8330  133.4180 C   0  0  0  0  0  0  0  0  0  0  0  0
  137.8215  158.3792  130.4238 H   0  0  0  0  0  0  0  0  0  0  0  0
  138.4895  159.8952  129.7294 H   0  0  0  0  0  0  0  0  0  0  0  0
  139.4781  158.3954  129.7294 H   0  0  0  0  0  0  0  0  0  0  0  0
  139.0704  158.6693  134.1208 H   0  0  0  0  0  0  0  0  0  0  0  0
  137.7816  158.0779  132.9953 H   0  0  0  0  0  0  0  0  0  0  0  0
  138.9704  156.2283  132.3801 H   0  0  0  0  0  0  0  0  0  0  0  0
  140.5540  157.0782  132.4892 H   0  0  0  0  0  0  0  0  0  0  0  0
  140.9798  157.1240  135.7578 H   0  0  0  0  0  0  0  0  0  0  0  0
  141.7067  155.7825  134.7946 H   0  0  0  0  0  0  0  0  0  0  0  0
  140.9500  161.3270  132.7610 H   0  0  0  0  0  0  0  0  0  0  0  0
  144.5506  161.9929  134.0493 H   0  0  0  0  0  0  0  0  0  0  0  0
  147.3100  161.5232  133.4682 H   0  0  0  0  0  0  0  0  0  0  0  0
  148.9450  159.7149  132.8408 H   0  0  0  0  0  0  0  0  0  0  0  0
  148.0580  156.5436  131.5545 H   0  0  0  0  0  0  0  0  0  0  0  0
  145.7266  156.7755  132.9235 H   0  0  0  0  0  0  0  0  0  0  0  0
  1  2  1  0
  2  3  2  0
  2  4  2  0
  2  5  1  0
  5  6  1  0
  6  7  1  0
  7  8  1  0
  8  9  1  0
  9 10  1  0
 10 11  2  0
 10 12  1  0
 12 13  1  0
 13 14  1  0
 14 15  1  0
 14 16  2  0
 13 17  2  0
 17 18  1  0
 18 19  2  0
 19 20  1  0
 20 21  2  0
 21 22  1  0
 22 23  1  0
 22 24  1  0
 21 25  1  0
 25 26  2  0
 26 12  1  0
 26 18  1  0
  1 27  1  0
  1 28  1  0
  1 29  1  0
  5 30  1  0
  5 31  1  0
  6 32  1  0
  6 33  1  0
  8 34  1  0
  8 35  1  0
 15 36  1  0
 17 37  1  0
 19 38  1  0
 20 39  1  0
 22 40  1  0
 25 41  1  0
M  CHG  1  15  -1
M  END
>  <UniqueID>  (1) 
1

>  <SMILES>  (1) 
CS(=O)(=O)CCOCOC(=O)n1c(C([NH-])=O)cc2ccc(C(F)F)cc21

>  <Energy>  (1) 
71.16906542292097

>  <Genealogy>  (1) 
CS(=O)(=O)CCOCOC(=O)n1c(C([NH-])=O)cc2ccc(C(F)F)cc21 (protonated)
CS(=O)(=O)CCOCOC(=O)n1c(C([NH-])=O)cc2ccc(C(F)F)cc21 (3D coordinates assigned)
CS(=O)(=O)CCOCOC(=O)n1c(C([NH-])=O)cc2ccc(C(F)F)cc21 (optimized conformer: 71.16906542292097 kcal/mol)

>  <smiles>  (1) 
CS(=O)(=O)CCOCOC(=O)n1c(C(N)=O)cc2ccc(C(F)F)cc21

>  <score_type>  (1) 
oracle

>  <origin>  (1) 
adg

>  <m_score__min__energy>  (1) 
-6.6900000000000004

>  <m_primary>  (1) 
energy

$$$$
1:0
     RDKit          3D

 56 57  0  0  0  0  0  0  0  0999 V2000
  144.4560  154.4950  131.3560 C   0  0  0  0  0  0  0  0  0  0  0  0
  145.1170  153.8170  132.4790 N   0  0  0  0  0  0  0  0  0  0  0  0
  144.6850  152.4640  132.7330 C   0  0  0  0  0  0  0  0  0  0  0  0
  145.1680  151.5070  132.0720 O   0  0  0  0  0  0  0  0  0  0  0  0
  143.6850  152.2360  133.6890 O   0  0  0  0  0  0  0  0  0  0  0  0
  142.3160  151.8910  133.4230 C   0  0  0  0  0  0  0  0  0  0  0  0
  142.2300  150.5860  132.6070 C   0  0  0  0  0  0  0  0  0  0  0  0
  141.7130  153.0340  132.5910 C   0  0  0  0  0  0  0  0  0  0  0  0
  141.5250  151.7610  134.7420 C   0  0  0  0  0  0  0  0  0  0  0  0
  146.2620  154.4560  133.1900 C   0  0  0  0  0  0  0  0  0  0  0  0
  146.9520  155.4330  132.2130 C   0  0  0  0  0  0  0  0  0  0  0  0
  147.2900  153.3890  133.6560 C   0  0  0  0  0  0  0  0  0  0  0  0
  145.7600  155.1700  134.4540 C   0  0  0  0  0  0  0  0  0  0  0  0
  146.2770  154.8640  135.5620 O   0  0  0  0  0  0  0  0  0  0  0  0
  144.7160  156.1670  134.4270 N   0  0  0  0  0  0  0  0  0  0  0  0
  143.4240  156.0230  134.8400 C   0  0  0  0  0  0  0  0  0  0  0  0
  142.8590  154.8480  135.5350 C   0  0  0  0  0  0  0  0  0  0  0  0
  143.7120  153.7700  135.9260 N   0  0  0  0  0  0  0  0  0  0  0  0
  141.6230  154.7540  135.7330 O   0  0  0  0  0  0  0  0  0  0  0  0
  142.7030  157.1930  134.6200 C   0  0  0  0  0  0  0  0  0  0  0  0
  143.6100  158.0870  134.1050 C   0  0  0  0  0  0  0  0  0  0  0  0
  143.4520  159.4280  133.7820 C   0  0  0  0  0  0  0  0  0  0  0  0
  144.5820  160.1410  133.3540 C   0  0  0  0  0  0  0  0  0  0  0  0
  145.8520  159.5090  133.2810 C   0  0  0  0  0  0  0  0  0  0  0  0
  147.0320  160.2260  132.8690 N   0  0  0  0  0  0  0  0  0  0  0  0
  148.3500  159.5990  132.7510 C   0  0  0  0  0  0  0  0  0  0  0  0
  148.9950  159.9730  131.4840 C   0  0  0  0  0  0  0  0  0  0  0  0
  149.5020  160.2690  130.4850 N   0  0  0  0  0  0  0  0  0  0  0  0
  145.9700  158.1490  133.6330 C   0  0  0  0  0  0  0  0  0  0  0  0
  144.8210  157.4520  134.0160 C   0  0  0  0  0  0  0  0  0  0  0  0
  143.7375  155.2319  131.7442 H   0  0  0  0  0  0  0  0  0  0  0  0
  145.2108  155.0074  130.7414 H   0  0  0  0  0  0  0  0  0  0  0  0
  143.9246  153.7534  130.7414 H   0  0  0  0  0  0  0  0  0  0  0  0
  142.1734  149.7278  133.2928 H   0  0  0  0  0  0  0  0  0  0  0  0
  141.3314  150.6085  131.9730 H   0  0  0  0  0  0  0  0  0  0  0  0
  143.1238  150.4904  131.9730 H   0  0  0  0  0  0  0  0  0  0  0  0
  141.3072  153.8032  133.2645 H   0  0  0  0  0  0  0  0  0  0  0  0
  142.4945  153.4775  131.9565 H   0  0  0  0  0  0  0  0  0  0  0  0
  140.9057  152.6393  131.9565 H   0  0  0  0  0  0  0  0  0  0  0  0
  142.2116  151.8739  135.5940 H   0  0  0  0  0  0  0  0  0  0  0  0
  140.7542  152.5445  134.7860 H   0  0  0  0  0  0  0  0  0  0  0  0
  141.0455  150.7720  134.7860 H   0  0  0  0  0  0  0  0  0  0  0  0
  147.4943  156.2009  132.7842 H   0  0  0  0  0  0  0  0  0  0  0  0
  147.6602  154.8789  131.5794 H   0  0  0  0  0  0  0  0  0  0  0  0
  146.1929  155.9151  131.5794 H   0  0  0  0  0  0  0  0  0  0  0  0
  147.3168  153.3612  134.7553 H   0  0  0  0  0  0  0  0  0  0  0  0
  146.9938  152.4019  133.2714 H   0  0  0  0  0  0  0  0  0  0  0  0
  148.2874  153.6482  133.2714 H   0  0  0  0  0  0  0  0  0  0  0  0
  144.5250  153.4920  135.3340 H   0  0  0  0  0  0  0  0  0  0  0  0
  141.6345  157.3651  134.8166 H   0  0  0  0  0  0  0  0  0  0  0  0
  142.4697  159.9171  133.8594 H   0  0  0  0  0  0  0  0  0  0  0  0
  144.4835  161.1997  133.0722 H   0  0  0  0  0  0  0  0  0  0  0  0
  146.9370  161.2470  132.6600 H   0  0  0  0  0  0  0  0  0  0  0  0
  148.9824  159.9286  133.5886 H   0  0  0  0  0  0  0  0  0  0  0  0
  148.2238  158.5065  132.7731 H   0  0  0  0  0  0  0  0  0  0  0  0
  146.9479  157.6461  133.6066 H   0  0  0  0  0  0  0  0  0  0  0  0
  1  2  1  0
  2  3  1  0
  3  4  2  0
  3  5  1  0
  5  6  1  0
  6  7  1  0
  6  8  1  0
  6  9  1  0
  2 10  1  0
 10 11  1  0
 10 12  1  0
 10 13  1  0
 13 14  2  0
 13 15  1  0
 15 16  1  0
 16 17  1  0
 17 18  1  0
 17 19  2  0
 16 20  2  0
 20 21  1  0
 21 22  2  0
 22 23  1  0
 23 24  2  0
 24 25  1  0
 25 26  1  0
 26 27  1  0
 27 28  3  0
 24 29  1  0
 29 30  2  0
 30 15  1  0
 30 21  1  0
  1 31  1  0
  1 32  1  0
  1 33  1  0
  7 34  1  0
  7 35  1  0
  7 36  1  0
  8 37  1  0
  8 38  1  0
  8 39  1  0
  9 40  1  0
  9 41  1  0
  9 42  1  0
 11 43  1  0
 11 44  1  0
 11 45  1  0
 12 46  1  0
 12 47  1  0
 12 48  1  0
 18 49  1  0
 20 50  1  0
 22 51  1  0
 23 52  1  0
 25 53  1  0
 26 54  1  0
 26 55  1  0
 29 56  1  0
M  CHG  1  18  -1
M  END
>  <UniqueID>  (2) 
2

>  <SMILES>  (2) 
CN(C(=O)OC(C)(C)C)C(C)(C)C(=O)n1c(C([NH-])=O)cc2ccc(NCC#N)cc21

>  <Energy>  (2) 
97.47085186444083

>  <Genealogy>  (2) 
CN(C(=O)OC(C)(C)C)C(C)(C)C(=O)n1c(C([NH-])=O)cc2ccc(NCC#N)cc21 (protonated)
CN(C(=O)OC(C)(C)C)C(C)(C)C(=O)n1c(C([NH-])=O)cc2ccc(NCC#N)cc21 (3D coordinates assigned)
CN(C(=O)OC(C)(C)C)C(C)(C)C(=O)n1c(C([NH-])=O)cc2ccc(NCC#N)cc21 (optimized conformer: 97.47085186444083 kcal/mol)

>  <smiles>  (2) 
CN(C(=O)OC(C)(C)C)C(C)(C)C(=O)n1c(C(N)=O)cc2ccc(NCC#N)cc21

>  <score_type>  (2) 
oracle

>  <origin>  (2) 
adg

>  <m_score__min__energy>  (2) 
-7.9500000000000002

>  <m_primary>  (2) 
energy

$$$$
2:0
     RDKit          3D

 36 37  0  0  0  0  0  0  0  0999 V2000
  141.9040  156.3660  140.2460 C   0  0  0  0  0  0  0  0  0  0  0  0
  141.5970  155.8710  138.8990 N   0  0  0  0  0  0  0  0  0  0  0  0
  141.5810  154.4220  138.6620 C   0  0  0  0  0  0  0  0  0  0  0  0
  141.3150  156.8000  137.8180 C   0  0  0  0  0  0  0  0  0  0  0  0
  141.3570  158.2050  138.0380 C   0  0  0  0  0  0  0  0  0  0  0  0
  141.0760  159.1120  137.0040 C   0  0  0  0  0  0  0  0  0  0  0  0
  140.7610  158.5970  135.7520 C   0  0  0  0  0  0  0  0  0  0  0  0
  140.4230  159.2470  134.5890 C   0  0  0  0  0  0  0  0  0  0  0  0
  140.1990  158.2400  133.6540 C   0  0  0  0  0  0  0  0  0  0  0  0
  139.8890  158.5010  132.2330 C   0  0  0  0  0  0  0  0  0  0  0  0
  138.7350  157.9110  131.6380 N   0  0  0  0  0  0  0  0  0  0  0  0
  140.6120  159.2710  131.5460 O   0  0  0  0  0  0  0  0  0  0  0  0
  140.3850  157.0130  134.2190 N   0  0  0  0  0  0  0  0  0  0  0  0
  140.1730  155.7290  133.6130 C   0  0  0  0  0  0  0  0  0  0  0  0
  139.1090  155.5030  132.9740 O   0  0  0  0  0  0  0  0  0  0  0  0
  141.1580  154.7410  133.7220 O   0  0  0  0  0  0  0  0  0  0  0  0
  141.1270  153.5430  133.0050 C   0  0  0  0  0  0  0  0  0  0  0  0
  141.3520  152.3670  133.5970 C   0  0  0  0  0  0  0  0  0  0  0  0
  141.6490  152.2130  135.0330 C   0  0  0  0  0  0  0  0  0  0  0  0
  141.0040  151.3680  135.7070 O   0  0  0  0  0  0  0  0  0  0  0  0
  142.6240  152.9780  135.6620 O   0  0  0  0  0  0  0  0  0  0  0  0
  140.7300  157.2500  135.5050 C   0  0  0  0  0  0  0  0  0  0  0  0
  140.9880  156.3220  136.5220 C   0  0  0  0  0  0  0  0  0  0  0  0
  141.4790  155.6807  140.9942 H   0  0  0  0  0  0  0  0  0  0  0  0
  142.9948  156.4208  140.3767 H   0  0  0  0  0  0  0  0  0  0  0  0
  141.4683  157.3675  140.3767 H   0  0  0  0  0  0  0  0  0  0  0  0
  141.5751  153.8928  139.6263 H   0  0  0  0  0  0  0  0  0  0  0  0
  140.6798  154.1538  138.0911 H   0  0  0  0  0  0  0  0  0  0  0  0
  142.4760  154.1339  138.0911 H   0  0  0  0  0  0  0  0  0  0  0  0
  141.6144  158.5876  139.0367 H   0  0  0  0  0  0  0  0  0  0  0  0
  141.1043  160.1976  137.1793 H   0  0  0  0  0  0  0  0  0  0  0  0
  140.3458  160.3328  134.4306 H   0  0  0  0  0  0  0  0  0  0  0  0
  138.1290  157.2550  132.1780 H   0  0  0  0  0  0  0  0  0  0  0  0
  140.9121  153.5685  131.9265 H   0  0  0  0  0  0  0  0  0  0  0  0
  141.3135  151.4596  132.9764 H   0  0  0  0  0  0  0  0  0  0  0  0
  140.9381  155.2419  136.3199 H   0  0  0  0  0  0  0  0  0  0  0  0
  1  2  1  0
  2  3  1  0
  2  4  1  0
  4  5  2  0
  5  6  1  0
  6  7  2  0
  7  8  1  0
  8  9  2  0
  9 10  1  0
 10 11  1  0
 10 12  2  0
  9 13  1  0
 13 14  1  0
 14 15  2  0
 14 16  1  0
 16 17  1  0
 17 18  2  3
 18 19  1  0
 19 20  2  0
 19 21  1  0
 13 22  1  0
 22 23  2  0
 23  4  1  0
 22  7  1  0
  1 24  1  0
  1 25  1  0
  1 26  1  0
  3 27  1  0
  3 28  1  0
  3 29  1  0
  5 30  1  0
  6 31  1  0
  8 32  1  0
 11 33  1  0
 17 34  1  0
 18 35  1  0
 23 36  1  0
M  CHG  2  11  -1  21  -1
M  END
>  <UniqueID>  (3) 
3

>  <SMILES>  (3) 
CN(C)c1ccc2cc(C([NH-])=O)n(C(=O)OC=CC(=O)[O-])c2c1

>  <Energy>  (3) 
74.38845143573012

>  <Genealogy>  (3) 
CN(C)c1ccc2cc(C([NH-])=O)n(C(=O)OC=CC(=O)[O-])c2c1 (protonated)
CN(C)c1ccc2cc(C([NH-])=O)n(C(=O)OC=CC(=O)[O-])c2c1 (3D coordinates assigned)
CN(C)c1ccc2cc(C([NH-])=O)n(C(=O)OC=CC(=O)[O-])c2c1 (optimized conformer: 74.38845143573012 kcal/mol)

>  <smiles>  (3) 
CN(C)c1ccc2cc(C(N)=O)n(C(=O)OC=CC(=O)O)c2c1

>  <score_type>  (3) 
oracle

>  <origin>  (3) 
adg

>  <m_score__min__energy>  (3) 
-6.1399999999999997

>  <m_primary>  (3) 
energy

$$$$
3:0
     RDKit          3D

 44 45  0  0  0  0  0  0  0  0999 V2000
  145.3670  154.9530  135.3230 C   0  0  0  0  0  0  0  0  0  0  0  0
  146.5920  154.0390  135.1650 C   0  0  2  0  0  0  0  0  0  0  0  0
  147.2720  153.7270  136.4740 C   0  0  0  0  0  0  0  0  0  0  0  0
  146.9830  152.6900  137.1300 O   0  0  0  0  0  0  0  0  0  0  0  0
  148.2550  154.5850  136.9550 O   0  0  0  0  0  0  0  0  0  0  0  0
  147.5550  154.6200  134.2100 N   0  0  0  0  0  0  0  0  0  0  0  0
  148.3930  153.7250  133.4050 C   0  0  0  0  0  0  0  0  0  0  0  0
  147.7260  156.0520  134.1180 C   0  0  0  0  0  0  0  0  0  0  0  0
  148.1560  156.6910  135.1170 O   0  0  0  0  0  0  0  0  0  0  0  0
  147.3900  156.8040  132.8880 C   0  0  0  0  0  0  0  0  0  0  0  0
  147.3240  156.2190  131.7740 O   0  0  0  0  0  0  0  0  0  0  0  0
  147.1030  158.2080  132.9580 N   0  0  0  0  0  0  0  0  0  0  0  0
  147.9020  159.2450  132.5830 C   0  0  0  0  0  0  0  0  0  0  0  0
  149.2900  159.1330  132.0840 C   0  0  0  0  0  0  0  0  0  0  0  0
  149.8860  157.8620  131.8480 N   0  0  0  0  0  0  0  0  0  0  0  0
  149.9640  160.1750  131.8750 O   0  0  0  0  0  0  0  0  0  0  0  0
  147.2410  160.4590  132.7700 C   0  0  0  0  0  0  0  0  0  0  0  0
  146.0010  160.1260  133.2700 C   0  0  0  0  0  0  0  0  0  0  0  0
  144.9300  160.9370  133.6260 C   0  0  0  0  0  0  0  0  0  0  0  0
  143.7600  160.3150  134.0960 C   0  0  0  0  0  0  0  0  0  0  0  0
  143.6690  158.8960  134.1960 C   0  0  0  0  0  0  0  0  0  0  0  0
  142.4540  158.2610  134.6750 N   0  0  0  0  0  0  0  0  0  0  0  0
  141.6290  158.9100  135.7030 C   0  0  0  0  0  0  0  0  0  0  0  0
  142.0360  156.9560  134.1490 C   0  0  0  0  0  0  0  0  0  0  0  0
  144.7890  158.1130  133.8160 C   0  0  0  0  0  0  0  0  0  0  0  0
  145.9440  158.7630  133.3710 C   0  0  0  0  0  0  0  0  0  0  0  0
  145.1602  155.1073  136.3923 H   0  0  0  0  0  0  0  0  0  0  0  0
  145.5690  155.9229  134.8449 H   0  0  0  0  0  0  0  0  0  0  0  0
  144.4948  154.4831  134.8449 H   0  0  0  0  0  0  0  0  0  0  0  0
  146.2174  153.0835  134.7692 H   0  0  0  0  0  0  0  0  0  0  0  0
  148.9915  153.0858  134.0707 H   0  0  0  0  0  0  0  0  0  0  0  0
  147.7524  153.0951  132.7703 H   0  0  0  0  0  0  0  0  0  0  0  0
  149.0636  154.3229  132.7703 H   0  0  0  0  0  0  0  0  0  0  0  0
  149.3210  157.0640  131.4800 H   0  0  0  0  0  0  0  0  0  0  0  0
  147.6275  161.4677  132.5624 H   0  0  0  0  0  0  0  0  0  0  0  0
  144.9957  162.0319  133.5426 H   0  0  0  0  0  0  0  0  0  0  0  0
  142.9001  160.9340  134.3916 H   0  0  0  0  0  0  0  0  0  0  0  0
  141.9934  158.6233  136.7005 H   0  0  0  0  0  0  0  0  0  0  0  0
  141.6933  160.0022  135.5891 H   0  0  0  0  0  0  0  0  0  0  0  0
  140.5826  158.5904  135.5891 H   0  0  0  0  0  0  0  0  0  0  0  0
  141.8182  156.2761  134.9858 H   0  0  0  0  0  0  0  0  0  0  0  0
  141.1329  157.0809  133.5335 H   0  0  0  0  0  0  0  0  0  0  0  0
  142.8436  156.5330  133.5335 H   0  0  0  0  0  0  0  0  0  0  0  0
  144.7496  157.0151  133.8704 H   0  0  0  0  0  0  0  0  0  0  0  0
  1  2  1  0
  2  3  1  0
  3  4  2  0
  3  5  1  0
  2  6  1  0
  6  7  1  0
  6  8  1  0
  8  9  2  0
  8 10  1  0
 10 11  2  0
 10 12  1  0
 12 13  1  0
 13 14  1  0
 14 15  1  0
 14 16  2  0
 13 17  2  0
 17 18  1  0
 18 19  2  0
 19 20  1  0
 20 21  2  0
 21 22  1  0
 22 23  1  0
 22 24  1  0
 21 25  1  0
 25 26  2  0
 26 12  1  0
 26 18  1  0
  1 27  1  0
  1 28  1  0
  1 29  1  0
  2 30  1  6
  7 31  1  0
  7 32  1  0
  7 33  1  0
 15 34  1  0
 17 35  1  0
 19 36  1  0
 20 37  1  0
 23 38  1  0
 23 39  1  0
 23 40  1  0
 24 41  1  0
 24 42  1  0
 24 43  1  0
 25 44  1  0
M  CHG  2   5  -1  15  -1
M  END
>  <UniqueID>  (4) 
4

>  <SMILES>  (4) 
C[C@H](C(=O)[O-])N(C)C(=O)C(=O)n1c(C([NH-])=O)cc2ccc(N(C)C)cc21

>  <Energy>  (4) 
85.39468944693839

>  <Genealogy>  (4) 
CC(C(=O)[O-])N(C)C(=O)C(=O)n1c(C([NH-])=O)cc2ccc(N(C)C)cc21 (protonated)
C[C@H](C(=O)[O-])N(C)C(=O)C(=O)n1c(C([NH-])=O)cc2ccc(N(C)C)cc21 (chirality)
C[C@H](C(=O)[O-])N(C)C(=O)C(=O)n1c(C([NH-])=O)cc2ccc(N(C)C)cc21 (3D coordinates assigned)
C[C@H](C(=O)[O-])N(C)C(=O)C(=O)n1c(C([NH-])=O)cc2ccc(N(C)C)cc21 (optimized conformer: 85.39468944693839 kcal/mol)

>  <smiles>  (4) 
CC(C(=O)O)N(C)C(=O)C(=O)n1c(C(N)=O)cc2ccc(N(C)C)cc21

>  <score_type>  (4) 
oracle

>  <origin>  (4) 
adg

>  <m_score__min__energy>  (4) 
-6.9100000000000001

>  <m_primary>  (4) 
energy

$$$$
4:0
     RDKit          3D

 34 35  0  0  0  0  0  0  0  0999 V2000
  148.4070  153.7810  133.5160 C   0  0  0  0  0  0  0  0  0  0  0  0
  148.1170  154.7350  132.4520 N   0  0  0  0  0  0  0  0  0  0  0  0
  147.8460  156.1300  132.6840 C   0  0  0  0  0  0  0  0  0  0  0  0
  148.8880  157.0980  132.6920 C   0  0  0  0  0  0  0  0  0  0  0  0
  148.6030  158.4580  132.9090 C   0  0  0  0  0  0  0  0  0  0  0  0
  147.2770  158.8210  133.1230 C   0  0  0  0  0  0  0  0  0  0  0  0
  146.7200  160.0630  133.3280 C   0  0  0  0  0  0  0  0  0  0  0  0
  145.3510  159.8360  133.4630 C   0  0  0  0  0  0  0  0  0  0  0  0
  144.3700  160.9030  133.7540 C   0  0  0  0  0  0  0  0  0  0  0  0
  143.0040  160.7690  133.3710 N   0  0  0  0  0  0  0  0  0  0  0  0
  144.7360  161.9350  134.3770 O   0  0  0  0  0  0  0  0  0  0  0  0
  145.0750  158.5070  133.3470 N   0  0  0  0  0  0  0  0  0  0  0  0
  143.7870  157.8750  133.3530 C   0  0  0  0  0  0  0  0  0  0  0  0
  143.1240  157.8280  132.2840 O   0  0  0  0  0  0  0  0  0  0  0  0
  143.2640  157.3040  134.6170 C   0  0  0  0  0  0  0  0  0  0  0  0
  141.9760  157.1700  134.9700 C   0  0  0  0  0  0  0  0  0  0  0  0
  140.5590  157.6540  133.9740 P   0  0  1  0  0  0  0  0  0  0  0  0
  140.2460  156.5720  132.9660 O   0  0  0  0  0  0  0  0  0  0  0  0
  139.2220  157.8660  134.9880 O   0  0  0  0  0  0  0  0  0  0  0  0
  140.8800  159.1080  133.1700 O   0  0  0  0  0  0  0  0  0  0  0  0
  146.2630  157.9000  133.1360 C   0  0  0  0  0  0  0  0  0  0  0  0
  146.5150  156.5430  132.9030 C   0  0  0  0  0  0  0  0  0  0  0  0
  148.2598  154.2652  134.4927 H   0  0  0  0  0  0  0  0  0  0  0  0
  147.7306  152.9179  133.4290 H   0  0  0  0  0  0  0  0  0  0  0  0
  149.4493  153.4403  133.4290 H   0  0  0  0  0  0  0  0  0  0  0  0
  148.1070  154.3770  131.4700 H   0  0  0  0  0  0  0  0  0  0  0  0
  149.9278  156.7796  132.5267 H   0  0  0  0  0  0  0  0  0  0  0  0
  149.4041  159.2118  132.9095 H   0  0  0  0  0  0  0  0  0  0  0  0
  147.2437  161.0292  133.3753 H   0  0  0  0  0  0  0  0  0  0  0  0
  142.7040  160.0310  132.6950 H   0  0  0  0  0  0  0  0  0  0  0  0
  144.0115  156.9525  135.3434 H   0  0  0  0  0  0  0  0  0  0  0  0
  141.7691  156.7253  135.9546 H   0  0  0  0  0  0  0  0  0  0  0  0
  141.8130  159.0180  132.8500 H   0  0  0  0  0  0  0  0  0  0  0  0
  145.6919  155.8134  132.8909 H   0  0  0  0  0  0  0  0  0  0  0  0
  1  2  1  0
  2  3  1  0
  3  4  2  0
  4  5  1  0
  5  6  2  0
  6  7  1  0
  7  8  2  0
  8  9  1  0
  9 10  1  0
  9 11  2  0
  8 12  1  0
 12 13  1  0
 13 14  2  0
 13 15  1  0
 15 16  2  3
 16 17  1  0
 17 18  2  0
 17 19  1  1
 17 20  1  0
 12 21  1  0
 21 22  2  0
 22  3  1  0
 21  6  1  0
  1 23  1  0
  1 24  1  0
  1 25  1  0
  2 26  1  0
  4 27  1  0
  5 28  1  0
  7 29  1  0
 10 30  1  0
 15 31  1  0
 16 32  1  0
 20 33  1  0
 22 34  1  0
M  CHG  2  10  -1  19  -1
M  END
>  <UniqueID>  (5) 
5

>  <SMILES>  (5) 
CNc1ccc2cc(C([NH-])=O)n(C(=O)C=C[P@@](=O)([O-])O)c2c1

>  <Energy>  (5) 
71.73003933998957

>  <Genealogy>  (5) 
CNc1ccc2cc(C([NH-])=O)n(C(=O)C=CP(=O)([O-])O)c2c1 (protonated)
CNc1ccc2cc(C([NH-])=O)n(C(=O)C=C[P@@](=O)([O-])O)c2c1 (chirality)
CNc1ccc2cc(C([NH-])=O)n(C(=O)C=C[P@@](=O)([O-])O)c2c1 (3D coordinates assigned)
CNc1ccc2cc(C([NH-])=O)n(C(=O)C=C[P@@](=O)([O-])O)c2c1 (optimized conformer: 71.73003933998957 kcal/mol)

>  <smiles>  (5) 
CNc1ccc2cc(C(N)=O)n(C(=O)C=CP(=O)(O)O)c2c1

>  <score_type>  (5) 
oracle

>  <origin>  (5) 
adg

>  <m_score__min__energy>  (5) 
-6.5700000000000003

>  <m_primary>  (5) 
energy

$$$$
5:0
     RDKit          3D

 42 43  0  0  0  0  0  0  0  0999 V2000
  148.9390  161.0130  131.0240 C   0  0  0  0  0  0  0  0  0  0  0  0
  148.0220  160.8230  132.1420 N   0  0  0  0  0  0  0  0  0  0  0  0
  147.6490  159.5300  132.6540 C   0  0  0  0  0  0  0  0  0  0  0  0
  148.6260  158.5870  133.0760 C   0  0  0  0  0  0  0  0  0  0  0  0
  148.2420  157.3350  133.5850 C   0  0  0  0  0  0  0  0  0  0  0  0
  146.8820  157.0470  133.6540 C   0  0  0  0  0  0  0  0  0  0  0  0
  146.2370  155.9290  134.1320 C   0  0  0  0  0  0  0  0  0  0  0  0
  144.8800  156.1940  133.9700 C   0  0  0  0  0  0  0  0  0  0  0  0
  143.8180  155.2250  134.2980 C   0  0  0  0  0  0  0  0  0  0  0  0
  142.5970  155.1950  133.5610 N   0  0  0  0  0  0  0  0  0  0  0  0
  144.0100  154.3780  135.2110 O   0  0  0  0  0  0  0  0  0  0  0  0
  144.6900  157.4280  133.4260 N   0  0  0  0  0  0  0  0  0  0  0  0
  143.4500  158.1280  133.2270 C   0  0  0  0  0  0  0  0  0  0  0  0
  142.7280  157.8430  132.2330 O   0  0  0  0  0  0  0  0  0  0  0  0
  143.0800  159.2980  134.1020 C   0  0  0  0  0  0  0  0  0  0  0  0
  141.7060  159.1850  134.7230 C   0  0  0  0  0  0  0  0  0  0  0  0
  141.5710  159.3390  135.9700 O   0  0  0  0  0  0  0  0  0  0  0  0
  140.5340  158.9350  133.9120 N   0  0  0  0  0  0  0  0  0  0  0  0
  140.2800  159.7960  132.7510 C   0  0  0  0  0  0  0  0  0  0  0  0
  139.5760  157.8690  134.2390 C   0  0  0  0  0  0  0  0  0  0  0  0
  140.2290  156.5260  134.1320 C   0  0  0  0  0  0  0  0  0  0  0  0
  140.3070  155.9470  133.0170 O   0  0  0  0  0  0  0  0  0  0  0  0
  140.7730  155.9230  135.2590 O   0  0  0  0  0  0  0  0  0  0  0  0
  145.9270  157.9360  133.2340 C   0  0  0  0  0  0  0  0  0  0  0  0
  146.2790  159.1960  132.7400 C   0  0  0  0  0  0  0  0  0  0  0  0
  149.9480  161.2221  131.4089 H   0  0  0  0  0  0  0  0  0  0  0  0
  148.9625  160.1007  130.4099 H   0  0  0  0  0  0  0  0  0  0  0  0
  148.5981  161.8596  130.4099 H   0  0  0  0  0  0  0  0  0  0  0  0
  147.6290  161.6790  132.5970 H   0  0  0  0  0  0  0  0  0  0  0  0
  149.6939  158.8404  133.0032 H   0  0  0  0  0  0  0  0  0  0  0  0
  148.9935  156.6044  133.9189 H   0  0  0  0  0  0  0  0  0  0  0  0
  146.6952  155.0213  134.5517 H   0  0  0  0  0  0  0  0  0  0  0  0
  141.8300  154.5420  133.8400 H   0  0  0  0  0  0  0  0  0  0  0  0
  142.4890  155.7500  132.6840 H   0  0  0  0  0  0  0  0  0  0  0  0
  143.8212  159.3740  134.9113 H   0  0  0  0  0  0  0  0  0  0  0  0
  143.0679  160.1891  133.4572 H   0  0  0  0  0  0  0  0  0  0  0  0
  139.9844  160.7980  133.0953 H   0  0  0  0  0  0  0  0  0  0  0  0
  141.1941  159.8718  132.1437 H   0  0  0  0  0  0  0  0  0  0  0  0
  139.4712  159.3635  132.1437 H   0  0  0  0  0  0  0  0  0  0  0  0
  139.2109  158.0131  135.2666 H   0  0  0  0  0  0  0  0  0  0  0  0
  138.7373  157.9143  133.5287 H   0  0  0  0  0  0  0  0  0  0  0  0
  145.5055  159.9119  132.4250 H   0  0  0  0  0  0  0  0  0  0  0  0
  1  2  1  0
  2  3  1  0
  3  4  2  0
  4  5  1  0
  5  6  2  0
  6  7  1  0
  7  8  2  0
  8  9  1  0
  9 10  1  0
  9 11  2  0
  8 12  1  0
 12 13  1  0
 13 14  2  0
 13 15  1  0
 15 16  1  0
 16 17  2  0
 16 18  1  0
 18 19  1  0
 18 20  1  0
 20 21  1  0
 21 22  2  0
 21 23  1  0
 12 24  1  0
 24 25  2  0
 25  3  1  0
 24  6  1  0
  1 26  1  0
  1 27  1  0
  1 28  1  0
  2 29  1  0
  4 30  1  0
  5 31  1  0
  7 32  1  0
 10 33  1  0
 10 34  1  0
 15 35  1  0
 15 36  1  0
 19 37  1  0
 19 38  1  0
 19 39  1  0
 20 40  1  0
 20 41  1  0
 25 42  1  0
M  CHG  1  23  -1
M  END
>  <UniqueID>  (6) 
6

>  <SMILES>  (6) 
CNc1ccc2cc(C(N)=O)n(C(=O)CC(=O)N(C)CC(=O)[O-])c2c1

>  <Energy>  (6) 
79.37130846608278

>  <Genealogy>  (6) 
CNc1ccc2cc(C(N)=O)n(C(=O)CC(=O)N(C)CC(=O)[O-])c2c1 (protonated)
CNc1ccc2cc(C(N)=O)n(C(=O)CC(=O)N(C)CC(=O)[O-])c2c1 (3D coordinates assigned)
CNc1ccc2cc(C(N)=O)n(C(=O)CC(=O)N(C)CC(=O)[O-])c2c1 (optimized conformer: 79.37130846608278 kcal/mol)

>  <smiles>  (6) 
CNc1ccc2cc(C(N)=O)n(C(=O)CC(=O)N(C)CC(=O)O)c2c1

>  <score_type>  (6) 
oracle

>  <origin>  (6) 
adg

>  <m_score__min__energy>  (6) 
-7.0099999999999998

>  <m_primary>  (6) 
energy

$$$$
6:0
     RDKit          3D

 36 39  0  0  0  0  0  0  0  0999 V2000
  139.8710  151.6990  132.6100 N   0  0  0  0  0  0  0  0  0  0  0  0
  141.0290  151.3570  133.3740 C   0  0  0  0  0  0  0  0  0  0  0  0
  141.0210  150.3090  134.0720 O   0  0  0  0  0  0  0  0  0  0  0  0
  142.2580  152.1720  133.3040 C   0  0  0  0  0  0  0  0  0  0  0  0
  143.5320  151.6260  133.1840 C   0  0  0  0  0  0  0  0  0  0  0  0
  144.3810  152.7040  133.0860 C   0  0  0  0  0  0  0  0  0  0  0  0
  145.7650  152.7400  132.9620 C   0  0  0  0  0  0  0  0  0  0  0  0
  146.3910  153.9970  132.9200 C   0  0  0  0  0  0  0  0  0  0  0  0
  145.6300  155.1910  133.0120 C   0  0  0  0  0  0  0  0  0  0  0  0
  146.3040  156.5140  132.9800 C   0  0  0  0  0  0  0  0  0  0  0  0
  145.7710  157.6100  133.7140 C   0  0  0  0  0  0  0  0  0  0  0  0
  146.4030  158.8670  133.6920 C   0  0  0  0  0  0  0  0  0  0  0  0
  147.5600  158.9970  132.9310 C   0  0  0  0  0  0  0  0  0  0  0  0
  148.3170  160.0930  132.7710 N   0  0  0  0  0  0  0  0  0  0  0  0
  149.2960  159.6440  131.9430 C   0  0  0  0  0  0  0  0  0  0  0  0
  150.3560  160.4810  131.4890 N   0  0  0  0  0  0  0  0  0  0  0  0
  149.1910  158.3390  131.5820 N   0  0  0  0  0  0  0  0  0  0  0  0
  148.0780  157.9570  132.2240 C   0  0  0  0  0  0  0  0  0  0  0  0
  147.4830  156.6980  132.2190 C   0  0  0  0  0  0  0  0  0  0  0  0
  144.2220  155.1100  133.1390 C   0  0  0  0  0  0  0  0  0  0  0  0
  143.6230  153.8440  133.1560 C   0  0  0  0  0  0  0  0  0  0  0  0
  142.3140  153.5340  133.2950 N   0  0  0  0  0  0  0  0  0  0  0  0
  141.2280  154.4510  133.5160 C   0  0  0  0  0  0  0  0  0  0  0  0
  141.2470  155.2420  134.4940 O   0  0  0  0  0  0  0  0  0  0  0  0
  140.1390  154.4690  132.6520 O   0  0  0  0  0  0  0  0  0  0  0  0
  139.9010  152.4610  131.8980 H   0  0  0  0  0  0  0  0  0  0  0  0
  138.9990  151.1320  132.6990 H   0  0  0  0  0  0  0  0  0  0  0  0
  143.8027  150.5599  133.1704 H   0  0  0  0  0  0  0  0  0  0  0  0
  146.3524  151.8122  132.8987 H   0  0  0  0  0  0  0  0  0  0  0  0
  147.4843  154.0563  132.8145 H   0  0  0  0  0  0  0  0  0  0  0  0
  144.8539  157.4731  134.3058 H   0  0  0  0  0  0  0  0  0  0  0  0
  145.9958  159.7181  134.2575 H   0  0  0  0  0  0  0  0  0  0  0  0
  150.2640  161.5200  131.5370 H   0  0  0  0  0  0  0  0  0  0  0  0
  151.2310  160.0620  131.1030 H   0  0  0  0  0  0  0  0  0  0  0  0
  147.9172  155.8697  131.6398 H   0  0  0  0  0  0  0  0  0  0  0  0
  143.6119  156.0215  133.2225 H   0  0  0  0  0  0  0  0  0  0  0  0
  1  2  1  0
  2  3  2  0
  2  4  1  0
  4  5  2  0
  5  6  1  0
  6  7  2  0
  7  8  1  0
  8  9  2  0
  9 10  1  0
 10 11  2  0
 11 12  1  0
 12 13  2  0
 13 14  1  0
 14 15  2  0
 15 16  1  0
 15 17  1  0
 17 18  1  0
 18 19  2  0
  9 20  1  0
 20 21  2  0
 21 22  1  0
 22 23  1  0
 23 24  2  0
 23 25  1  0
 22  4  1  0
 21  6  1  0
 19 10  1  0
 18 13  1  0
  1 26  1  0
  1 27  1  0
  5 28  1  0
  7 29  1  0
  8 30  1  0
 11 31  1  0
 12 32  1  0
 16 33  1  0
 16 34  1  0
 19 35  1  0
 20 36  1  0
M  CHG  2  17  -1  25  -1
M  END
>  <UniqueID>  (7) 
7

>  <SMILES>  (7) 
NC(=O)c1cc2ccc(-c3ccc4nc(N)[n-]c4c3)cc2n1C(=O)[O-]

>  <Energy>  (7) 
119.4297233083411

>  <Genealogy>  (7) 
NC(=O)c1cc2ccc(-c3ccc4nc(N)[n-]c4c3)cc2n1C(=O)[O-] (protonated)
NC(=O)c1cc2ccc(-c3ccc4nc(N)[n-]c4c3)cc2n1C(=O)[O-] (3D coordinates assigned)
NC(=O)c1cc2ccc(-c3ccc4nc(N)[n-]c4c3)cc2n1C(=O)[O-] (optimized conformer: 119.4297233083411 kcal/mol)

>  <smiles>  (7) 
NC(=O)c1cc2ccc(-c3ccc4nc(N)[nH]c4c3)cc2n1C(=O)O

>  <score_type>  (7) 
oracle

>  <origin>  (7) 
adg

>  <m_score__min__energy>  (7) 
-8.4399999999999995

>  <m_primary>  (7) 
energy

$$$$
7:0
     RDKit          3D

 44 45  0  0  0  0  0  0  0  0999 V2000
  149.1060  152.8670  132.3500 C   0  0  0  0  0  0  0  0  0  0  0  0
  148.7340  154.2620  132.7210 C   0  0  0  0  0  0  0  0  0  0  0  0
  149.5570  155.2000  132.5360 O   0  0  0  0  0  0  0  0  0  0  0  0
  147.4910  154.5090  133.3110 O   0  0  0  0  0  0  0  0  0  0  0  0
  147.3410  154.8810  134.6760 C   0  0  0  0  0  0  0  0  0  0  0  0
  146.5420  156.0550  134.7610 O   0  0  0  0  0  0  0  0  0  0  0  0
  145.8880  156.6230  133.6650 C   0  0  0  0  0  0  0  0  0  0  0  0
  145.4890  155.8890  132.7190 O   0  0  0  0  0  0  0  0  0  0  0  0
  145.7000  158.0490  133.6030 N   0  0  0  0  0  0  0  0  0  0  0  0
  146.6600  159.0130  133.4920 C   0  0  0  0  0  0  0  0  0  0  0  0
  148.1000  158.7760  133.2540 C   0  0  0  0  0  0  0  0  0  0  0  0
  148.6130  157.4450  133.1750 N   0  0  0  0  0  0  0  0  0  0  0  0
  148.8950  159.7480  133.1590 O   0  0  0  0  0  0  0  0  0  0  0  0
  146.0850  160.2820  133.5270 C   0  0  0  0  0  0  0  0  0  0  0  0
  144.7330  160.0660  133.6540 C   0  0  0  0  0  0  0  0  0  0  0  0
  143.6870  160.9800  133.7310 C   0  0  0  0  0  0  0  0  0  0  0  0
  142.3820  160.4810  133.8610 C   0  0  0  0  0  0  0  0  0  0  0  0
  142.1340  159.0810  133.9180 C   0  0  0  0  0  0  0  0  0  0  0  0
  140.7810  158.5740  134.0430 N   0  0  0  0  0  0  0  0  0  0  0  0
  139.9540  158.3840  132.8460 C   0  0  0  0  0  0  0  0  0  0  0  0
  140.2280  158.1960  135.3550 C   0  0  0  0  0  0  0  0  0  0  0  0
  141.1390  158.6320  136.5110 C   0  0  0  0  0  0  0  0  0  0  0  0
  140.6050  159.7320  137.1930 O   0  0  0  0  0  0  0  0  0  0  0  0
  143.2330  158.1900  133.8490 C   0  0  0  0  0  0  0  0  0  0  0  0
  144.5240  158.7140  133.6980 C   0  0  0  0  0  0  0  0  0  0  0  0
  149.2640  152.2745  133.2632 H   0  0  0  0  0  0  0  0  0  0  0  0
  148.2964  152.4171  131.7565 H   0  0  0  0  0  0  0  0  0  0  0  0
  150.0321  152.8800  131.7565 H   0  0  0  0  0  0  0  0  0  0  0  0
  146.8526  154.0640  135.2274 H   0  0  0  0  0  0  0  0  0  0  0  0
  148.3307  155.0777  135.1140 H   0  0  0  0  0  0  0  0  0  0  0  0
  147.9790  156.6170  133.2080 H   0  0  0  0  0  0  0  0  0  0  0  0
  149.6380  157.2850  133.0480 H   0  0  0  0  0  0  0  0  0  0  0  0
  146.6027  161.2506  133.4660 H   0  0  0  0  0  0  0  0  0  0  0  0
  143.8775  162.0626  133.6911 H   0  0  0  0  0  0  0  0  0  0  0  0
  141.5373  161.1832  133.9198 H   0  0  0  0  0  0  0  0  0  0  0  0
  138.9227  158.1471  133.1466 H   0  0  0  0  0  0  0  0  0  0  0  0
  139.9585  159.3066  132.2470 H   0  0  0  0  0  0  0  0  0  0  0  0
  140.3607  157.5559  132.2470 H   0  0  0  0  0  0  0  0  0  0  0  0
  139.2453  158.6749  135.4774 H   0  0  0  0  0  0  0  0  0  0  0  0
  140.1432  157.0997  135.3845 H   0  0  0  0  0  0  0  0  0  0  0  0
  141.2508  157.7940  137.2147 H   0  0  0  0  0  0  0  0  0  0  0  0
  142.1143  158.9226  136.0936 H   0  0  0  0  0  0  0  0  0  0  0  0
  139.6170  159.6640  137.1160 H   0  0  0  0  0  0  0  0  0  0  0  0
  143.0755  157.1032  133.9130 H   0  0  0  0  0  0  0  0  0  0  0  0
  1  2  1  0
  2  3  2  0
  2  4  1  0
  4  5  1  0
  5  6  1  0
  6  7  1  0
  7  8  2  0
  7  9  1  0
  9 10  1  0
 10 11  1  0
 11 12  1  0
 11 13  2  0
 10 14  2  0
 14 15  1  0
 15 16  2  0
 16 17  1  0
 17 18  2  0
 18 19  1  0
 19 20  1  0
 19 21  1  0
 21 22  1  0
 22 23  1  0
 18 24  1  0
 24 25  2  0
 25  9  1  0
 25 15  1  0
  1 26  1  0
  1 27  1  0
  1 28  1  0
  5 29  1  0
  5 30  1  0
 12 31  1  0
 12 32  1  0
 14 33  1  0
 16 34  1  0
 17 35  1  0
 20 36  1  0
 20 37  1  0
 20 38  1  0
 21 39  1  0
 21 40  1  0
 22 41  1  0
 22 42  1  0
 23 43  1  0
 24 44  1  0
M  END
>  <UniqueID>  (8) 
8

>  <SMILES>  (8) 
CC(=O)OCOC(=O)n1c(C(N)=O)cc2ccc(N(C)CCO)cc21

>  <Energy>  (8) 
77.1925409164884

>  <Genealogy>  (8) 
CC(=O)OCOC(=O)n1c(C(N)=O)cc2ccc(N(C)CCO)cc21 (3D coordinates assigned)
CC(=O)OCOC(=O)n1c(C(N)=O)cc2ccc(N(C)CCO)cc21 (optimized conformer: 77.1925409164884 kcal/mol)

>  <smiles>  (8) 
CC(=O)OCOC(=O)n1c(C(N)=O)cc2ccc(N(C)CCO)cc21

>  <score_type>  (8) 
oracle

>  <origin>  (8) 
adg

>  <m_score__min__energy>  (8) 
-5.96

>  <m_primary>  (8) 
energy

$$$$
8:0
     RDKit          3D

 34 35  0  0  0  0  0  0  0  0999 V2000
  142.9100  160.8690  134.0530 N   0  0  0  0  0  0  0  0  0  0  0  0
  144.2810  161.2290  133.8720 C   0  0  0  0  0  0  0  0  0  0  0  0
  144.6110  162.4430  133.9480 O   0  0  0  0  0  0  0  0  0  0  0  0
  145.2980  160.1990  133.5620 C   0  0  0  0  0  0  0  0  0  0  0  0
  146.6470  160.4770  133.3560 C   0  0  0  0  0  0  0  0  0  0  0  0
  147.2530  159.2520  133.1980 C   0  0  0  0  0  0  0  0  0  0  0  0
  148.5890  158.9380  132.9570 C   0  0  0  0  0  0  0  0  0  0  0  0
  148.9290  157.5830  132.8110 C   0  0  0  0  0  0  0  0  0  0  0  0
  147.9360  156.5810  132.9040 C   0  0  0  0  0  0  0  0  0  0  0  0
  148.2970  155.1980  132.7400 C   0  0  0  0  0  0  0  0  0  0  0  0
  148.5990  154.0380  132.6020 C   0  0  0  0  0  0  0  0  0  0  0  0
  148.9660  152.6280  132.4350 C   0  0  0  0  0  0  0  0  0  0  0  0
  150.3460  152.4680  132.6160 O   0  0  0  0  0  0  0  0  0  0  0  0
  146.5940  156.9310  133.1500 C   0  0  0  0  0  0  0  0  0  0  0  0
  146.2840  158.2870  133.3080 C   0  0  0  0  0  0  0  0  0  0  0  0
  145.0770  158.8540  133.5310 N   0  0  0  0  0  0  0  0  0  0  0  0
  143.8200  158.1670  133.6480 C   0  0  0  0  0  0  0  0  0  0  0  0
  143.2370  157.7440  132.6120 O   0  0  0  0  0  0  0  0  0  0  0  0
  143.2570  157.9570  134.9110 O   0  0  0  0  0  0  0  0  0  0  0  0
  141.8530  157.8620  135.1370 C   0  0  0  0  0  0  0  0  0  0  0  0
  141.3850  158.9910  136.0000 C   0  0  0  0  0  0  0  0  0  0  0  0
  141.3820  158.8680  137.2540 O   0  0  0  0  0  0  0  0  0  0  0  0
  140.9810  160.1880  135.4250 O   0  0  0  0  0  0  0  0  0  0  0  0
  142.1940  161.6080  134.2320 H   0  0  0  0  0  0  0  0  0  0  0  0
  142.6060  159.8710  134.0530 H   0  0  0  0  0  0  0  0  0  0  0  0
  147.1265  161.4665  133.3260 H   0  0  0  0  0  0  0  0  0  0  0  0
  149.3530  159.7260  132.8834 H   0  0  0  0  0  0  0  0  0  0  0  0
  149.9751  157.2995  132.6230 H   0  0  0  0  0  0  0  0  0  0  0  0
  148.4282  152.0210  133.1782 H   0  0  0  0  0  0  0  0  0  0  0  0
  148.6944  152.3017  131.4202 H   0  0  0  0  0  0  0  0  0  0  0  0
  150.7900  152.9550  131.8720 H   0  0  0  0  0  0  0  0  0  0  0  0
  145.8116  156.1606  133.2161 H   0  0  0  0  0  0  0  0  0  0  0  0
  141.3272  157.9019  134.1716 H   0  0  0  0  0  0  0  0  0  0  0  0
  141.6376  156.9111  135.6463 H   0  0  0  0  0  0  0  0  0  0  0  0
  1  2  1  0
  2  3  2  0
  2  4  1  0
  4  5  2  0
  5  6  1  0
  6  7  2  0
  7  8  1  0
  8  9  2  0
  9 10  1  0
 10 11  3  0
 11 12  1  0
 12 13  1  0
  9 14  1  0
 14 15  2  0
 15 16  1  0
 16 17  1  0
 17 18  2  0
 17 19  1  0
 19 20  1  0
 20 21  1  0
 21 22  2  0
 21 23  1  0
 16  4  1  0
 15  6  1  0
  1 24  1  0
  1 25  1  0
  5 26  1  0
  7 27  1  0
  8 28  1  0
 12 29  1  0
 12 30  1  0
 13 31  1  0
 14 32  1  0
 20 33  1  0
 20 34  1  0
M  CHG  1  23  -1
M  END
>  <UniqueID>  (9) 
9

>  <SMILES>  (9) 
NC(=O)c1cc2ccc(C#CCO)cc2n1C(=O)OCC(=O)[O-]

>  <Energy>  (9) 
65.8385701566559

>  <Genealogy>  (9) 
NC(=O)c1cc2ccc(C#CCO)cc2n1C(=O)OCC(=O)[O-] (protonated)
NC(=O)c1cc2ccc(C#CCO)cc2n1C(=O)OCC(=O)[O-] (3D coordinates assigned)
NC(=O)c1cc2ccc(C#CCO)cc2n1C(=O)OCC(=O)[O-] (optimized conformer: 65.8385701566559 kcal/mol)

>  <smiles>  (9) 
NC(=O)c1cc2ccc(C#CCO)cc2n1C(=O)OCC(=O)O

>  <score_type>  (9) 
oracle

>  <origin>  (9) 
adg

>  <m_score__min__energy>  (9) 
-6.5300000000000002

>  <m_primary>  (9) 
energy

$$$$
9:0
     RDKit          3D

 36 37  0  0  0  0  0  0  0  0999 V2000
  143.2050  161.3710  133.7100 N   0  0  0  0  0  0  0  0  0  0  0  0
  144.6220  161.4170  133.8480 C   0  0  0  0  0  0  0  0  0  0  0  0
  145.1710  162.4880  134.2220 O   0  0  0  0  0  0  0  0  0  0  0  0
  145.4490  160.2140  133.6160 C   0  0  0  0  0  0  0  0  0  0  0  0
  146.8260  160.2590  133.4100 C   0  0  0  0  0  0  0  0  0  0  0  0
  147.2240  158.9460  133.3160 C   0  0  0  0  0  0  0  0  0  0  0  0
  148.4860  158.4090  133.0870 C   0  0  0  0  0  0  0  0  0  0  0  0
  148.5990  157.0140  132.9820 C   0  0  0  0  0  0  0  0  0  0  0  0
  147.4580  156.1820  133.0920 C   0  0  0  0  0  0  0  0  0  0  0  0
  147.6150  154.7580  132.9310 N   0  0  0  0  0  0  0  0  0  0  0  0
  147.7270  153.7980  134.0310 C   0  0  0  0  0  0  0  0  0  0  0  0
  147.4090  154.4590  135.3750 C   0  0  0  0  0  0  0  0  0  0  0  0
  147.2340  153.4660  136.3620 O   0  0  0  0  0  0  0  0  0  0  0  0
  148.4860  153.0510  136.8530 C   0  0  0  0  0  0  0  0  0  0  0  0
  148.8130  153.9300  138.4060 P   0  0  0  0  0  0  0  0  0  0  0  0
  149.4290  155.2760  138.1050 O   0  0  0  0  0  0  0  0  0  0  0  0
  149.8770  153.0210  139.3550 O   0  0  0  0  0  0  0  0  0  0  0  0
  147.3610  154.1490  139.2440 O   0  0  0  0  0  0  0  0  0  0  0  0
  146.1940  156.7660  133.3560 C   0  0  0  0  0  0  0  0  0  0  0  0
  146.1120  158.1580  133.4630 C   0  0  0  0  0  0  0  0  0  0  0  0
  145.0120  158.9230  133.6430 N   0  0  0  0  0  0  0  0  0  0  0  0
  143.6570  158.4520  133.7260 C   0  0  0  0  0  0  0  0  0  0  0  0
  143.1230  157.8760  132.7420 O   0  0  0  0  0  0  0  0  0  0  0  0
  142.9300  158.6070  134.9010 O   0  0  0  0  0  0  0  0  0  0  0  0
  142.6850  160.4710  133.8090 H   0  0  0  0  0  0  0  0  0  0  0  0
  147.4604  161.1547  133.3378 H   0  0  0  0  0  0  0  0  0  0  0  0
  149.3690  159.0579  132.9911 H   0  0  0  0  0  0  0  0  0  0  0  0
  149.5868  156.5608  132.8120 H   0  0  0  0  0  0  0  0  0  0  0  0
  147.5790  154.3660  131.9620 H   0  0  0  0  0  0  0  0  0  0  0  0
  147.0202  152.9725  133.8606 H   0  0  0  0  0  0  0  0  0  0  0  0
  148.7604  153.4224  134.0626 H   0  0  0  0  0  0  0  0  0  0  0  0
  148.2399  155.1195  135.6637 H   0  0  0  0  0  0  0  0  0  0  0  0
  146.4848  155.0483  135.2823 H   0  0  0  0  0  0  0  0  0  0  0  0
  148.4722  151.9664  137.0359 H   0  0  0  0  0  0  0  0  0  0  0  0
  149.2732  153.2763  136.1185 H   0  0  0  0  0  0  0  0  0  0  0  0
  145.2980  156.1389  133.4740 H   0  0  0  0  0  0  0  0  0  0  0  0
  1  2  1  0
  2  3  2  0
  2  4  1  0
  4  5  2  0
  5  6  1  0
  6  7  2  0
  7  8  1  0
  8  9  2  0
  9 10  1  0
 10 11  1  0
 11 12  1  0
 12 13  1  0
 13 14  1  0
 14 15  1  0
 15 16  2  0
 15 17  1  0
 15 18  1  0
  9 19  1  0
 19 20  2  0
 20 21  1  0
 21 22  1  0
 22 23  2  0
 22 24  1  0
 21  4  1  0
 20  6  1  0
  1 25  1  0
  5 26  1  0
  7 27  1  0
  8 28  1  0
 10 29  1  0
 11 30  1  0
 11 31  1  0
 12 32  1  0
 12 33  1  0
 14 34  1  0
 14 35  1  0
 19 36  1  0
M  CHG  4   1  -1  17  -1  18  -1  24  -1
M  END
>  <UniqueID>  (10) 
10

>  <SMILES>  (10) 
[NH-]C(=O)c1cc2ccc(NCCOCP(=O)([O-])[O-])cc2n1C(=O)[O-]

>  <Energy>  (10) 
69.31092799694648

>  <Genealogy>  (10) 
[NH-]C(=O)c1cc2ccc(NCCOCP(=O)([O-])[O-])cc2n1C(=O)[O-] (protonated)
[NH-]C(=O)c1cc2ccc(NCCOCP(=O)([O-])[O-])cc2n1C(=O)[O-] (3D coordinates assigned)
[NH-]C(=O)c1cc2ccc(NCCOCP(=O)([O-])[O-])cc2n1C(=O)[O-] (optimized conformer: 69.31092799694648 kcal/mol)

>  <smiles>  (10) 
NC(=O)c1cc2ccc(NCCOCP(=O)(O)O)cc2n1C(=O)O

>  <score_type>  (10) 
oracle

>  <origin>  (10) 
adg

>  <m_score__min__energy>  (10) 
-7.1699999999999999

>  <m_primary>  (10) 
energy

$$$$
10:0
     RDKit          3D

 40 41  0  0  0  0  0  0  0  0999 V2000
  141.2640  158.6280  134.7160 C   0  0  0  0  0  0  0  0  0  0  0  0
  141.4510  158.0080  133.3190 C   0  0  0  0  0  0  0  0  0  0  0  0
  140.9780  156.5490  133.3550 C   0  0  0  0  0  0  0  0  0  0  0  0
  140.6240  158.7740  132.2680 C   0  0  0  0  0  0  0  0  0  0  0  0
  142.8390  157.9930  132.9540 O   0  0  0  0  0  0  0  0  0  0  0  0
  143.9260  157.8070  133.8230 C   0  0  0  0  0  0  0  0  0  0  0  0
  143.8270  157.0650  134.8360 O   0  0  0  0  0  0  0  0  0  0  0  0
  145.1580  158.4980  133.5630 N   0  0  0  0  0  0  0  0  0  0  0  0
  145.3690  159.8440  133.4970 C   0  0  0  0  0  0  0  0  0  0  0  0
  144.3800  160.8940  133.8200 C   0  0  0  0  0  0  0  0  0  0  0  0
  143.0320  160.7590  133.3740 N   0  0  0  0  0  0  0  0  0  0  0  0
  144.7170  161.9280  134.4540 O   0  0  0  0  0  0  0  0  0  0  0  0
  146.6930  160.1150  133.1600 C   0  0  0  0  0  0  0  0  0  0  0  0
  147.2950  158.8840  133.0270 C   0  0  0  0  0  0  0  0  0  0  0  0
  148.6080  158.5600  132.6930 C   0  0  0  0  0  0  0  0  0  0  0  0
  148.9470  157.1990  132.6030 C   0  0  0  0  0  0  0  0  0  0  0  0
  147.9720  156.2010  132.8400 C   0  0  0  0  0  0  0  0  0  0  0  0
  148.3280  154.8110  132.7330 C   0  0  0  0  0  0  0  0  0  0  0  0
  148.6240  153.6450  132.6450 C   0  0  0  0  0  0  0  0  0  0  0  0
  148.9850  152.2290  132.5380 C   0  0  0  0  0  0  0  0  0  0  0  0
  150.3760  152.0810  132.6260 O   0  0  0  0  0  0  0  0  0  0  0  0
  146.6530  156.5620  133.1740 C   0  0  0  0  0  0  0  0  0  0  0  0
  146.3470  157.9250  133.2750 C   0  0  0  0  0  0  0  0  0  0  0  0
  141.4912  157.8748  135.4848 H   0  0  0  0  0  0  0  0  0  0  0  0
  141.9435  159.4854  134.8306 H   0  0  0  0  0  0  0  0  0  0  0  0
  140.2237  158.9667  134.8306 H   0  0  0  0  0  0  0  0  0  0  0  0
  140.8725  156.2234  134.4004 H   0  0  0  0  0  0  0  0  0  0  0  0
  140.0068  156.4657  132.8452 H   0  0  0  0  0  0  0  0  0  0  0  0
  141.7156  155.9117  132.8452 H   0  0  0  0  0  0  0  0  0  0  0  0
  139.9084  159.4368  132.7765 H   0  0  0  0  0  0  0  0  0  0  0  0
  141.2970  159.3749  131.6387 H   0  0  0  0  0  0  0  0  0  0  0  0
  140.0763  158.0570  131.6387 H   0  0  0  0  0  0  0  0  0  0  0  0
  142.7880  160.1140  132.5880 H   0  0  0  0  0  0  0  0  0  0  0  0
  147.1587  161.1028  133.0281 H   0  0  0  0  0  0  0  0  0  0  0  0
  149.3559  159.3446  132.5056 H   0  0  0  0  0  0  0  0  0  0  0  0
  149.9764  156.9078  132.3468 H   0  0  0  0  0  0  0  0  0  0  0  0
  148.5066  151.6684  133.3546 H   0  0  0  0  0  0  0  0  0  0  0  0
  148.6413  151.8410  131.5678 H   0  0  0  0  0  0  0  0  0  0  0  0
  150.7710  152.6650  131.9260 H   0  0  0  0  0  0  0  0  0  0  0  0
  145.8843  155.7952  133.3507 H   0  0  0  0  0  0  0  0  0  0  0  0
  1  2  1  0
  2  3  1  0
  2  4  1  0
  2  5  1  0
  5  6  1  0
  6  7  2  0
  6  8  1  0
  8  9  1  0
  9 10  1  0
 10 11  1  0
 10 12  2  0
  9 13  2  0
 13 14  1  0
 14 15  2  0
 15 16  1  0
 16 17  2  0
 17 18  1  0
 18 19  3  0
 19 20  1  0
 20 21  1  0
 17 22  1  0
 22 23  2  0
 23  8  1  0
 23 14  1  0
  1 24  1  0
  1 25  1  0
  1 26  1  0
  3 27  1  0
  3 28  1  0
  3 29  1  0
  4 30  1  0
  4 31  1  0
  4 32  1  0
 11 33  1  0
 13 34  1  0
 15 35  1  0
 16 36  1  0
 20 37  1  0
 20 38  1  0
 21 39  1  0
 22 40  1  0
M  CHG  1  11  -1
M  END
>  <UniqueID>  (11) 
11

>  <SMILES>  (11) 
CC(C)(C)OC(=O)n1c(C([NH-])=O)cc2ccc(C#CCO)cc21

>  <Energy>  (11) 
68.86937917630827

>  <Genealogy>  (11) 
CC(C)(C)OC(=O)n1c(C([NH-])=O)cc2ccc(C#CCO)cc21 (protonated)
CC(C)(C)OC(=O)n1c(C([NH-])=O)cc2ccc(C#CCO)cc21 (3D coordinates assigned)
CC(C)(C)OC(=O)n1c(C([NH-])=O)cc2ccc(C#CCO)cc21 (optimized conformer: 68.86937917630827 kcal/mol)

>  <smiles>  (11) 
CC(C)(C)OC(=O)n1c(C(N)=O)cc2ccc(C#CCO)cc21

>  <score_type>  (11) 
oracle

>  <origin>  (11) 
adg

>  <m_score__min__energy>  (11) 
-7.3099999999999996

>  <m_primary>  (11) 
energy

$$$$
11:0
     RDKit          3D

 51 53  0  0  0  0  0  0  0  0999 V2000
  138.3160  149.2230  131.4400 C   0  0  0  0  0  0  0  0  0  0  0  0
  140.1140  149.6050  131.7730 Si  0  0  0  0  0  4  0  0  0  0  0  0
  140.5950  148.8400  133.4060 C   0  0  0  0  0  0  0  0  0  0  0  0
  141.1690  148.8610  130.4230 C   0  0  0  0  0  0  0  0  0  0  0  0
  140.3960  151.4630  131.8820 C   0  0  0  0  0  0  0  0  0  0  0  0
  141.5950  151.8350  132.7600 C   0  0  0  0  0  0  0  0  0  0  0  0
  142.7720  151.1830  132.3200 O   0  0  0  0  0  0  0  0  0  0  0  0
  143.9020  151.6220  133.0480 C   0  0  0  0  0  0  0  0  0  0  0  0
  144.1730  153.0280  132.7590 N   0  0  0  0  0  0  0  0  0  0  0  0
  143.6610  154.0820  133.4190 C   0  0  0  0  0  0  0  0  0  0  0  0
  144.1260  155.2430  132.8150 C   0  0  0  0  0  0  0  0  0  0  0  0
  143.8220  156.6480  133.1950 C   0  0  0  0  0  0  0  0  0  0  0  0
  142.5230  157.0060  133.6470 C   0  0  0  0  0  0  0  0  0  0  0  0
  142.2220  158.3320  134.0010 C   0  0  0  0  0  0  0  0  0  0  0  0
  143.2330  159.2800  133.9020 C   0  0  0  0  0  0  0  0  0  0  0  0
  143.2060  160.6320  134.1580 C   0  0  0  0  0  0  0  0  0  0  0  0
  144.4940  161.0860  133.8810 C   0  0  0  0  0  0  0  0  0  0  0  0
  144.9300  162.4800  134.1060 C   0  0  0  0  0  0  0  0  0  0  0  0
  146.1510  162.7390  134.7940 N   0  0  0  0  0  0  0  0  0  0  0  0
  144.2540  163.4460  133.6660 O   0  0  0  0  0  0  0  0  0  0  0  0
  145.2840  160.0560  133.4630 N   0  0  0  0  0  0  0  0  0  0  0  0
  146.6480  160.1220  133.0160 C   0  0  0  0  0  0  0  0  0  0  0  0
  147.5890  160.1940  133.8500 O   0  0  0  0  0  0  0  0  0  0  0  0
  146.9450  160.0820  131.6590 O   0  0  0  0  0  0  0  0  0  0  0  0
  144.4970  158.9560  133.4840 C   0  0  0  0  0  0  0  0  0  0  0  0
  144.8210  157.6470  133.1090 C   0  0  0  0  0  0  0  0  0  0  0  0
  144.9300  154.8030  131.7690 C   0  0  0  0  0  0  0  0  0  0  0  0
  144.9320  153.4580  131.7650 N   0  0  0  0  0  0  0  0  0  0  0  0
  137.7822  149.1096  132.3951 H   0  0  0  0  0  0  0  0  0  0  0  0
  137.8668  150.0458  130.8644 H   0  0  0  0  0  0  0  0  0  0  0  0
  138.2401  148.2887  130.8644 H   0  0  0  0  0  0  0  0  0  0  0  0
  140.2065  149.4579  134.2290 H   0  0  0  0  0  0  0  0  0  0  0  0
  140.1707  147.8275  133.4758 H   0  0  0  0  0  0  0  0  0  0  0  0
  141.6913  148.7837  133.4758 H   0  0  0  0  0  0  0  0  0  0  0  0
  141.9886  148.2830  130.8748 H   0  0  0  0  0  0  0  0  0  0  0  0
  140.5522  148.1969  129.7996 H   0  0  0  0  0  0  0  0  0  0  0  0
  141.5874  149.6649  129.7996 H   0  0  0  0  0  0  0  0  0  0  0  0
  140.5701  151.8514  130.8677 H   0  0  0  0  0  0  0  0  0  0  0  0
  139.5005  151.9057  132.3425 H   0  0  0  0  0  0  0  0  0  0  0  0
  141.7491  152.9232  132.7149 H   0  0  0  0  0  0  0  0  0  0  0  0
  141.3844  151.5162  133.7915 H   0  0  0  0  0  0  0  0  0  0  0  0
  143.7095  151.5028  134.1245 H   0  0  0  0  0  0  0  0  0  0  0  0
  144.7746  151.0203  132.7537 H   0  0  0  0  0  0  0  0  0  0  0  0
  142.9889  154.0330  134.2884 H   0  0  0  0  0  0  0  0  0  0  0  0
  141.7425  156.2344  133.7207 H   0  0  0  0  0  0  0  0  0  0  0  0
  141.2157  158.6114  134.3463 H   0  0  0  0  0  0  0  0  0  0  0  0
  142.3496  161.2276  134.5071 H   0  0  0  0  0  0  0  0  0  0  0  0
  146.9880  162.1330  134.6460 H   0  0  0  0  0  0  0  0  0  0  0  0
  145.8324  157.3995  132.7543 H   0  0  0  0  0  0  0  0  0  0  0  0
  145.4737  155.4476  131.0626 H   0  0  0  0  0  0  0  0  0  0  0  0
  145.4380  152.8450  131.0870 H   0  0  0  0  0  0  0  0  0  0  0  0
  1  2  1  0
  2  3  1  0
  2  4  1  0
  2  5  1  0
  5  6  1  0
  6  7  1  0
  7  8  1  0
  8  9  1  0
  9 10  1  0
 10 11  2  0
 11 12  1  0
 12 13  2  0
 13 14  1  0
 14 15  2  0
 15 16  1  0
 16 17  2  0
 17 18  1  0
 18 19  1  0
 18 20  2  0
 17 21  1  0
 21 22  1  0
 22 23  2  0
 22 24  1  0
 21 25  1  0
 25 26  2  0
 11 27  1  0
 27 28  2  0
 28  9  1  0
 26 12  1  0
 25 15  1  0
  1 29  1  0
  1 30  1  0
  1 31  1  0
  3 32  1  0
  3 33  1  0
  3 34  1  0
  4 35  1  0
  4 36  1  0
  4 37  1  0
  5 38  1  0
  5 39  1  0
  6 40  1  0
  6 41  1  0
  8 42  1  0
  8 43  1  0
 10 44  1  0
 13 45  1  0
 14 46  1  0
 16 47  1  0
 19 48  1  0
 26 49  1  0
 27 50  1  0
 28 51  1  0
M  CHG  3  19  -1  24  -1  28   1
M  END
>  <UniqueID>  (12) 
12

>  <SMILES>  (12) 
C[Si](C)(C)CCOCn1cc(-c2ccc3cc(C([NH-])=O)n(C(=O)[O-])c3c2)c[nH+]1

>  <Energy>  (12) 
109.72197271313615

>  <Genealogy>  (12) 
C[Si](C)(C)CCOCn1cc(-c2ccc3cc(C([NH-])=O)n(C(=O)[O-])c3c2)c[nH+]1 (protonated)
C[Si](C)(C)CCOCn1cc(-c2ccc3cc(C([NH-])=O)n(C(=O)[O-])c3c2)c[nH+]1 (3D coordinates assigned)
C[Si](C)(C)CCOCn1cc(-c2ccc3cc(C([NH-])=O)n(C(=O)[O-])c3c2)c[nH+]1 (optimized conformer: 109.72197271313615 kcal/mol)

>  <smiles>  (12) 
C[Si](C)(C)CCOCn1cc(-c2ccc3cc(C(N)=O)n(C(=O)O)c3c2)cn1

>  <score_type>  (12) 
oracle

>  <origin>  (12) 
adg

>  <m_score__min__energy>  (12) 
-8.3300000000000001

>  <m_primary>  (12) 
energy

$$$$
12:0
     RDKit          3D

 36 37  0  0  0  0  0  0  0  0999 V2000
  141.1780  158.9840  134.7730 C   0  0  0  0  0  0  0  0  0  0  0  0
  142.3140  159.2240  134.4470 C   0  0  0  0  0  0  0  0  0  0  0  0
  143.6690  159.5110  134.0580 C   0  0  0  0  0  0  0  0  0  0  0  0
  144.1550  160.8370  134.1190 C   0  0  0  0  0  0  0  0  0  0  0  0
  145.4830  161.1270  133.7590 C   0  0  0  0  0  0  0  0  0  0  0  0
  146.2870  160.0740  133.3310 C   0  0  0  0  0  0  0  0  0  0  0  0
  147.6100  160.0680  132.9490 C   0  0  0  0  0  0  0  0  0  0  0  0
  147.8960  158.7420  132.6300 C   0  0  0  0  0  0  0  0  0  0  0  0
  149.1950  158.2990  132.0840 C   0  0  0  0  0  0  0  0  0  0  0  0
  149.6410  156.9560  132.2540 N   0  0  0  0  0  0  0  0  0  0  0  0
  149.8990  159.1030  131.4150 O   0  0  0  0  0  0  0  0  0  0  0  0
  146.7980  157.9580  132.8180 N   0  0  0  0  0  0  0  0  0  0  0  0
  146.7080  156.5300  132.6900 C   0  0  0  0  0  0  0  0  0  0  0  0
  146.9420  155.9820  131.5780 O   0  0  0  0  0  0  0  0  0  0  0  0
  146.3340  155.7570  133.7940 O   0  0  0  0  0  0  0  0  0  0  0  0
  147.1450  154.7090  134.3160 C   0  0  0  0  0  0  0  0  0  0  0  0
  148.4700  154.8340  133.8080 O   0  0  0  0  0  0  0  0  0  0  0  0
  149.0200  153.9230  132.9020 C   0  0  0  0  0  0  0  0  0  0  0  0
  150.0460  154.2210  132.2320 O   0  0  0  0  0  0  0  0  0  0  0  0
  148.3570  152.5960  132.7020 C   0  0  0  0  0  0  0  0  0  0  0  0
  149.3770  151.5440  132.2710 C   0  0  0  0  0  0  0  0  0  0  0  0
  145.8200  158.7880  133.2440 C   0  0  0  0  0  0  0  0  0  0  0  0
  144.5090  158.4660  133.6200 C   0  0  0  0  0  0  0  0  0  0  0  0
  140.1418  158.7651  135.0703 H   0  0  0  0  0  0  0  0  0  0  0  0
  143.4896  161.6478  134.4505 H   0  0  0  0  0  0  0  0  0  0  0  0
  145.8743  162.1536  133.8138 H   0  0  0  0  0  0  0  0  0  0  0  0
  148.2954  160.9273  132.9050 H   0  0  0  0  0  0  0  0  0  0  0  0
  148.9890  156.1510  132.1180 H   0  0  0  0  0  0  0  0  0  0  0  0
  147.1659  154.7741  135.4139 H   0  0  0  0  0  0  0  0  0  0  0  0
  146.7271  153.7375  134.0134 H   0  0  0  0  0  0  0  0  0  0  0  0
  147.8889  152.2800  133.6459 H   0  0  0  0  0  0  0  0  0  0  0  0
  147.5960  152.6954  131.9139 H   0  0  0  0  0  0  0  0  0  0  0  0
  149.8256  151.0814  133.1625 H   0  0  0  0  0  0  0  0  0  0  0  0
  148.8752  150.7713  131.6701 H   0  0  0  0  0  0  0  0  0  0  0  0
  150.1648  152.0217  131.6701 H   0  0  0  0  0  0  0  0  0  0  0  0
  144.1457  157.4287  133.5749 H   0  0  0  0  0  0  0  0  0  0  0  0
  1  2  3  0
  2  3  1  0
  3  4  2  0
  4  5  1  0
  5  6  2  0
  6  7  1  0
  7  8  2  0
  8  9  1  0
  9 10  1  0
  9 11  2  0
  8 12  1  0
 12 13  1  0
 13 14  2  0
 13 15  1  0
 15 16  1  0
 16 17  1  0
 17 18  1  0
 18 19  2  0
 18 20  1  0
 20 21  1  0
 12 22  1  0
 22 23  2  0
 23  3  1  0
 22  6  1  0
  1 24  1  0
  4 25  1  0
  5 26  1  0
  7 27  1  0
 10 28  1  0
 16 29  1  0
 16 30  1  0
 20 31  1  0
 20 32  1  0
 21 33  1  0
 21 34  1  0
 21 35  1  0
 23 36  1  0
M  CHG  1  10  -1
M  END
>  <UniqueID>  (13) 
13

>  <SMILES>  (13) 
C#Cc1ccc2cc(C([NH-])=O)n(C(=O)OCOC(=O)CC)c2c1

>  <Energy>  (13) 
65.9418507128518

>  <Genealogy>  (13) 
C#Cc1ccc2cc(C([NH-])=O)n(C(=O)OCOC(=O)CC)c2c1 (protonated)
C#Cc1ccc2cc(C([NH-])=O)n(C(=O)OCOC(=O)CC)c2c1 (3D coordinates assigned)
C#Cc1ccc2cc(C([NH-])=O)n(C(=O)OCOC(=O)CC)c2c1 (optimized conformer: 65.9418507128518 kcal/mol)

>  <smiles>  (13) 
C#Cc1ccc2cc(C(N)=O)n(C(=O)OCOC(=O)CC)c2c1

>  <score_type>  (13) 
oracle

>  <origin>  (13) 
adg

>  <m_score__min__energy>  (13) 
-6.8700000000000001

>  <m_primary>  (13) 
energy

$$$$
14:0
     RDKit          3D

 38 39  0  0  0  0  0  0  0  0999 V2000
  147.8369  158.1180  135.1421 H   0  0  0  0  0  0  0  0  0  0  0  0
  147.9130  158.3330  134.0660 C   0  0  0  0  0  0  0  0  0  0  0  0
  146.9670  157.6320  133.1820 C   0  0  0  0  0  0  0  0  0  0  0  0
  147.4370  157.0230  132.1850 O   0  0  0  0  0  0  0  0  0  0  0  0
  145.5350  157.7440  133.3400 N   0  0  0  0  0  0  0  0  0  0  0  0
  144.6130  156.7430  133.2030 C   0  0  0  0  0  0  0  0  0  0  0  0
  144.9110  155.3080  132.9880 C   0  0  0  0  0  0  0  0  0  0  0  0
  144.4540  154.4380  133.7730 O   0  0  0  0  0  0  0  0  0  0  0  0
  145.6900  154.8880  131.8660 N   0  0  0  0  0  0  0  0  0  0  0  0
  146.1370  155.5800  131.2250 H   0  0  0  0  0  0  0  0  0  0  0  0
  145.8610  153.8710  131.6980 H   0  0  0  0  0  0  0  0  0  0  0  0
  143.3210  157.2380  133.3590 C   0  0  0  0  0  0  0  0  0  0  0  0
  142.3801  156.6701  133.3124 H   0  0  0  0  0  0  0  0  0  0  0  0
  143.4690  158.5830  133.5830 C   0  0  0  0  0  0  0  0  0  0  0  0
  142.4980  159.5590  133.7860 C   0  0  0  0  0  0  0  0  0  0  0  0
  141.4298  159.2979  133.8133 H   0  0  0  0  0  0  0  0  0  0  0  0
  142.9220  160.8870  133.9550 C   0  0  0  0  0  0  0  0  0  0  0  0
  142.1791  161.6797  134.1275 H   0  0  0  0  0  0  0  0  0  0  0  0
  144.2990  161.2130  133.9050 C   0  0  0  0  0  0  0  0  0  0  0  0
  144.7480  162.6380  134.0600 C   0  0  0  0  0  0  0  0  0  0  0  0
  145.5794  162.8308  133.3660 H   0  0  0  0  0  0  0  0  0  0  0  0
  143.6990  163.4930  133.7720 F   0  0  0  0  0  0  0  0  0  0  0  0
  145.1690  162.8540  135.3590 F   0  0  0  0  0  0  0  0  0  0  0  0
  145.2550  160.1970  133.6900 C   0  0  0  0  0  0  0  0  0  0  0  0
  146.3265  160.4383  133.6287 H   0  0  0  0  0  0  0  0  0  0  0  0
  144.8100  158.8720  133.5560 C   0  0  0  0  0  0  0  0  0  0  0  0
  148.8600  159.2090  133.6900 C   0  0  0  0  0  0  0  0  0  0  0  0
  149.5591  159.5344  134.4745 H   0  0  0  0  0  0  0  0  0  0  0  0
  149.0780  159.8010  132.3130 C   0  0  0  0  0  0  0  0  0  0  0  0
  149.8402  160.5828  132.4463 H   0  0  0  0  0  0  0  0  0  0  0  0
  147.8150  160.4800  131.7720 C   0  0  0  0  0  0  0  0  0  0  0  0
  147.1904  160.8158  132.6129 H   0  0  0  0  0  0  0  0  0  0  0  0
  148.0993  161.3468  131.1574 H   0  0  0  0  0  0  0  0  0  0  0  0
  147.2488  159.7647  131.1574 H   0  0  0  0  0  0  0  0  0  0  0  0
  149.6760  158.8130  131.3060 C   0  0  0  0  0  0  0  0  0  0  0  0
  150.1720  157.9935  131.8467 H   0  0  0  0  0  0  0  0  0  0  0  0
  148.8743  158.4031  130.6742 H   0  0  0  0  0  0  0  0  0  0  0  0
  150.4110  159.3332  130.6742 H   0  0  0  0  0  0  0  0  0  0  0  0
  1  2  1  0
  2  3  1  0
  3  4  2  0
  3  5  1  0
  5  6  1  0
  6  7  1  0
  7  8  2  0
  7  9  1  0
  9 10  1  0
  9 11  1  0
  6 12  2  0
 12 13  1  0
 12 14  1  0
 14 15  2  0
 15 16  1  0
 15 17  1  0
 17 18  1  0
 17 19  2  0
 19 20  1  0
 20 21  1  0
 20 22  1  0
 20 23  1  0
 19 24  1  0
 24 25  1  0
 24 26  2  0
  2 27  2  0
 27 28  1  0
 27 29  1  0
 29 30  1  0
 29 31  1  0
 31 32  1  0
 31 33  1  0
 31 34  1  0
 29 35  1  0
 35 36  1  0
 35 37  1  0
 35 38  1  0
 26  5  1  0
 26 14  1  0
M  END
>  <UniqueID>  (14) 
14

>  <SMILES>  (14) 
CC(C)/C=C\C(=O)n1c(C(N)=O)cc2ccc(C(F)F)cc21

>  <Energy>  (14) 
81.60799070052688

>  <Genealogy>  (14) 
CC(C)/C=C\C(=O)n1c(C(N)=O)cc2ccc(C(F)F)cc21 (cis-trans isomerization)
CC(C)/C=C\C(=O)n1c(C(N)=O)cc2ccc(C(F)F)cc21 (3D coordinates assigned)
CC(C)/C=C\C(=O)n1c(C(N)=O)cc2ccc(C(F)F)cc21 (optimized conformer: 81.60799070052688 kcal/mol)

>  <smiles>  (14) 
CC(C)C=CC(=O)n1c(C(N)=O)cc2ccc(C(F)F)cc21

>  <score_type>  (14) 
oracle

>  <origin>  (14) 
adg

>  <m_score__min__energy>  (14) 
-8.0800000000000001

>  <m_primary>  (14) 
energy

$$$$
15:0
     RDKit          3D

 40 41  0  0  0  0  0  0  0  0999 V2000
  146.7290  157.5770  134.1550 C   0  0  0  0  0  0  0  0  0  0  0  0
  146.6970  157.9730  132.7360 N   0  0  2  0  0  0  0  0  0  0  0  0
  148.0520  158.0810  132.1320 C   0  0  0  0  0  0  0  0  0  0  0  0
  148.9020  159.3020  132.5800 C   0  0  2  0  0  0  0  0  0  0  0  0
  148.2820  159.9210  133.6790 O   0  0  0  0  0  0  0  0  0  0  0  0
  149.0190  160.3210  131.4360 C   0  0  0  0  0  0  0  0  0  0  0  0
  148.4590  161.5430  131.8260 O   0  0  0  0  0  0  0  0  0  0  0  0
  145.8710  159.1510  132.5630 C   0  0  0  0  0  0  0  0  0  0  0  0
  146.2620  160.1070  131.8380 O   0  0  0  0  0  0  0  0  0  0  0  0
  144.6680  159.3140  133.3360 N   0  0  0  0  0  0  0  0  0  0  0  0
  144.2220  160.4510  133.9430 C   0  0  0  0  0  0  0  0  0  0  0  0
  144.9470  161.7380  134.0260 C   0  0  0  0  0  0  0  0  0  0  0  0
  146.3690  161.7820  134.0870 N   0  0  0  0  0  0  0  0  0  0  0  0
  144.2970  162.8160  134.0750 O   0  0  0  0  0  0  0  0  0  0  0  0
  142.9810  160.2320  134.5380 C   0  0  0  0  0  0  0  0  0  0  0  0
  142.6770  158.9160  134.2770 C   0  0  0  0  0  0  0  0  0  0  0  0
  141.5520  158.1720  134.6220 C   0  0  0  0  0  0  0  0  0  0  0  0
  141.4900  156.8370  134.1900 C   0  0  0  0  0  0  0  0  0  0  0  0
  142.5390  156.2790  133.4220 C   0  0  0  0  0  0  0  0  0  0  0  0
  142.4580  154.9220  132.9780 N   0  0  0  0  0  0  0  0  0  0  0  0
  143.6630  157.0630  133.0900 C   0  0  0  0  0  0  0  0  0  0  0  0
  143.7100  158.3850  133.5470 C   0  0  0  0  0  0  0  0  0  0  0  0
  146.6565  158.4739  134.7877 H   0  0  0  0  0  0  0  0  0  0  0  0
  145.8820  156.9084  134.3683 H   0  0  0  0  0  0  0  0  0  0  0  0
  147.6724  157.0531  134.3683 H   0  0  0  0  0  0  0  0  0  0  0  0
  146.2230  157.1860  132.2330 H   0  0  0  0  0  0  0  0  0  0  0  0
  148.6098  157.1692  132.3916 H   0  0  0  0  0  0  0  0  0  0  0  0
  147.8859  158.2152  131.0529 H   0  0  0  0  0  0  0  0  0  0  0  0
  149.9074  158.9517  132.8566 H   0  0  0  0  0  0  0  0  0  0  0  0
  147.7270  160.6630  133.3210 H   0  0  0  0  0  0  0  0  0  0  0  0
  150.0801  160.4692  131.1870 H   0  0  0  0  0  0  0  0  0  0  0  0
  148.4796  159.9404  130.5561 H   0  0  0  0  0  0  0  0  0  0  0  0
  147.5630  161.3310  132.1970 H   0  0  0  0  0  0  0  0  0  0  0  0
  146.9500  161.6080  133.2380 H   0  0  0  0  0  0  0  0  0  0  0  0
  142.3731  160.9579  135.0979 H   0  0  0  0  0  0  0  0  0  0  0  0
  140.7378  158.6155  135.2139 H   0  0  0  0  0  0  0  0  0  0  0  0
  140.6179  156.2196  134.4512 H   0  0  0  0  0  0  0  0  0  0  0  0
  142.2990  154.1460  133.6580 H   0  0  0  0  0  0  0  0  0  0  0  0
  142.5570  154.6840  131.9650 H   0  0  0  0  0  0  0  0  0  0  0  0
  144.4827  156.6458  132.4867 H   0  0  0  0  0  0  0  0  0  0  0  0
  1  2  1  0
  2  3  1  0
  3  4  1  0
  4  5  1  0
  4  6  1  0
  6  7  1  0
  2  8  1  0
  8  9  2  0
  8 10  1  0
 10 11  1  0
 11 12  1  0
 12 13  1  0
 12 14  2  0
 11 15  2  0
 15 16  1  0
 16 17  2  0
 17 18  1  0
 18 19  2  0
 19 20  1  0
 19 21  1  0
 21 22  2  0
 22 10  1  0
 22 16  1  0
  1 23  1  0
  1 24  1  0
  1 25  1  0
  2 26  1  6
  3 27  1  0
  3 28  1  0
  4 29  1  1
  5 30  1  0
  6 31  1  0
  6 32  1  0
  7 33  1  0
 13 34  1  0
 15 35  1  0
 17 36  1  0
 18 37  1  0
 20 38  1  0
 20 39  1  0
 21 40  1  0
M  CHG  2   2   1  13  -1
M  END
>  <UniqueID>  (15) 
15

>  <SMILES>  (15) 
C[N@H+](C[C@H](O)CO)C(=O)n1c(C([NH-])=O)cc2ccc(N)cc21

>  <Energy>  (15) 
84.65777693775438

>  <Genealogy>  (15) 
C[NH+](CC(O)CO)C(=O)n1c(C([NH-])=O)cc2ccc(N)cc21 (protonated)
C[N@H+](C[C@H](O)CO)C(=O)n1c(C([NH-])=O)cc2ccc(N)cc21 (chirality)
C[N@H+](C[C@H](O)CO)C(=O)n1c(C([NH-])=O)cc2ccc(N)cc21 (3D coordinates assigned)
C[N@H+](C[C@H](O)CO)C(=O)n1c(C([NH-])=O)cc2ccc(N)cc21 (optimized conformer: 84.65777693775438 kcal/mol)

>  <smiles>  (15) 
CN(CC(O)CO)C(=O)n1c(C(N)=O)cc2ccc(N)cc21

>  <score_type>  (15) 
oracle

>  <origin>  (15) 
adg

>  <m_score__min__energy>  (15) 
-4.4299999999999997

>  <m_primary>  (15) 
energy

$$$$
16:0
     RDKit          3D

 39 40  0  0  0  0  0  0  0  0999 V2000
  149.0940  161.5780  130.7920 C   0  0  0  0  0  0  0  0  0  0  0  0
  148.7090  160.1170  131.0670 C   0  0  0  0  0  0  0  0  0  0  0  0
  149.6160  159.5630  132.1820 C   0  0  0  0  0  0  0  0  0  0  0  0
  148.8840  159.3050  129.7690 C   0  0  0  0  0  0  0  0  0  0  0  0
  147.3360  160.1120  131.4830 O   0  0  0  0  0  0  0  0  0  0  0  0
  146.8660  160.0230  132.8010 C   0  0  0  0  0  0  0  0  0  0  0  0
  147.2380  160.8450  133.6810 O   0  0  0  0  0  0  0  0  0  0  0  0
  145.9670  158.9620  133.1550 N   0  0  0  0  0  0  0  0  0  0  0  0
  144.6790  159.0610  133.5930 C   0  0  0  0  0  0  0  0  0  0  0  0
  143.8750  160.2990  133.6520 C   0  0  0  0  0  0  0  0  0  0  0  0
  144.4910  161.5660  133.8720 N   0  0  0  0  0  0  0  0  0  0  0  0
  142.6310  160.2450  133.4570 O   0  0  0  0  0  0  0  0  0  0  0  0
  144.1720  157.8020  133.9070 C   0  0  0  0  0  0  0  0  0  0  0  0
  145.1920  156.9190  133.6360 C   0  0  0  0  0  0  0  0  0  0  0  0
  145.2370  155.5340  133.7660 C   0  0  0  0  0  0  0  0  0  0  0  0
  146.4340  154.8790  133.4300 C   0  0  0  0  0  0  0  0  0  0  0  0
  147.5620  155.6180  132.9920 C   0  0  0  0  0  0  0  0  0  0  0  0
  148.8310  154.9060  132.6160 C   0  0  0  0  0  0  0  0  0  0  0  0
  148.7900  153.4920  133.1020 C   0  0  0  0  0  0  0  0  0  0  0  0
  148.5370  153.2450  134.3100 O   0  0  0  0  0  0  0  0  0  0  0  0
  149.0800  152.4490  132.2300 O   0  0  0  0  0  0  0  0  0  0  0  0
  147.4760  157.0220  132.8640 C   0  0  0  0  0  0  0  0  0  0  0  0
  146.2650  157.6450  133.1850 C   0  0  0  0  0  0  0  0  0  0  0  0
  149.2332  162.1064  131.7467 H   0  0  0  0  0  0  0  0  0  0  0  0
  150.0308  161.6082  130.2162 H   0  0  0  0  0  0  0  0  0  0  0  0
  148.2938  162.0659  130.2162 H   0  0  0  0  0  0  0  0  0  0  0  0
  149.1913  159.8224  133.1630 H   0  0  0  0  0  0  0  0  0  0  0  0
  149.6840  158.4690  132.0896 H   0  0  0  0  0  0  0  0  0  0  0  0
  150.6204  160.0020  132.0896 H   0  0  0  0  0  0  0  0  0  0  0  0
  149.1097  158.2579  130.0192 H   0  0  0  0  0  0  0  0  0  0  0  0
  147.9556  159.3495  129.1806 H   0  0  0  0  0  0  0  0  0  0  0  0
  149.7116  159.7280  129.1806 H   0  0  0  0  0  0  0  0  0  0  0  0
  145.3580  161.8390  133.3590 H   0  0  0  0  0  0  0  0  0  0  0  0
  143.1688  157.5641  134.2904 H   0  0  0  0  0  0  0  0  0  0  0  0
  144.3623  154.9693  134.1209 H   0  0  0  0  0  0  0  0  0  0  0  0
  146.4964  153.7835  133.5074 H   0  0  0  0  0  0  0  0  0  0  0  0
  148.9408  154.9116  131.5215 H   0  0  0  0  0  0  0  0  0  0  0  0
  149.6845  155.4218  133.0802 H   0  0  0  0  0  0  0  0  0  0  0  0
  148.3393  157.6108  132.5206 H   0  0  0  0  0  0  0  0  0  0  0  0
  1  2  1  0
  2  3  1  0
  2  4  1  0
  2  5  1  0
  5  6  1  0
  6  7  2  0
  6  8  1  0
  8  9  1  0
  9 10  1  0
 10 11  1  0
 10 12  2  0
  9 13  2  0
 13 14  1  0
 14 15  2  0
 15 16  1  0
 16 17  2  0
 17 18  1  0
 18 19  1  0
 19 20  2  0
 19 21  1  0
 17 22  1  0
 22 23  2  0
 23  8  1  0
 23 14  1  0
  1 24  1  0
  1 25  1  0
  1 26  1  0
  3 27  1  0
  3 28  1  0
  3 29  1  0
  4 30  1  0
  4 31  1  0
  4 32  1  0
 11 33  1  0
 13 34  1  0
 15 35  1  0
 16 36  1  0
 18 37  1  0
 18 38  1  0
 22 39  1  0
M  CHG  2  11  -1  21  -1
M  END
>  <UniqueID>  (16) 
16

>  <SMILES>  (16) 
CC(C)(C)OC(=O)n1c(C([NH-])=O)cc2ccc(CC(=O)[O-])cc21

>  <Energy>  (16) 
71.38324937387799

>  <Genealogy>  (16) 
CC(C)(C)OC(=O)n1c(C([NH-])=O)cc2ccc(CC(=O)[O-])cc21 (protonated)
CC(C)(C)OC(=O)n1c(C([NH-])=O)cc2ccc(CC(=O)[O-])cc21 (3D coordinates assigned)
CC(C)(C)OC(=O)n1c(C([NH-])=O)cc2ccc(CC(=O)[O-])cc21 (optimized conformer: 71.38324937387799 kcal/mol)

>  <smiles>  (16) 
CC(C)(C)OC(=O)n1c(C(N)=O)cc2ccc(CC(=O)O)cc21

>  <score_type>  (16) 
oracle

>  <origin>  (16) 
adg

>  <m_score__min__energy>  (16) 
-6.6799999999999997

>  <m_primary>  (16) 
energy

$$$$
17:0
     RDKit          3D

 39 40  0  0  0  0  0  0  0  0999 V2000
  143.3610  161.4420  133.5650 N   0  0  0  0  0  0  0  0  0  0  0  0
  144.7450  161.4610  133.9150 C   0  0  0  0  0  0  0  0  0  0  0  0
  145.1990  162.4290  134.5810 O   0  0  0  0  0  0  0  0  0  0  0  0
  145.6390  160.3390  133.5660 C   0  0  0  0  0  0  0  0  0  0  0  0
  147.0090  160.4830  133.3720 C   0  0  0  0  0  0  0  0  0  0  0  0
  147.4760  159.2120  133.1290 C   0  0  0  0  0  0  0  0  0  0  0  0
  148.7670  158.7730  132.8540 C   0  0  0  0  0  0  0  0  0  0  0  0
  148.9600  157.4050  132.6040 C   0  0  0  0  0  0  0  0  0  0  0  0
  147.8620  156.5020  132.6180 C   0  0  0  0  0  0  0  0  0  0  0  0
  148.0310  155.0950  132.3530 N   0  0  0  0  0  0  0  0  0  0  0  0
  148.1110  154.0560  133.3810 C   0  0  0  0  0  0  0  0  0  0  0  0
  149.0410  152.9190  132.9480 C   0  0  0  0  0  0  0  0  0  0  0  0
  149.5960  153.1930  131.6890 O   0  0  0  0  0  0  0  0  0  0  0  0
  146.5680  156.9900  132.9060 C   0  0  0  0  0  0  0  0  0  0  0  0
  146.4080  158.3550  133.1720 C   0  0  0  0  0  0  0  0  0  0  0  0
  145.2680  159.0340  133.4380 N   0  0  0  0  0  0  0  0  0  0  0  0
  143.9310  158.5040  133.4450 C   0  0  0  0  0  0  0  0  0  0  0  0
  143.5960  157.6260  132.6050 O   0  0  0  0  0  0  0  0  0  0  0  0
  143.0090  158.9650  134.3910 O   0  0  0  0  0  0  0  0  0  0  0  0
  141.7050  158.4110  134.5530 C   0  0  0  0  0  0  0  0  0  0  0  0
  140.7020  159.1230  133.6460 C   0  0  0  0  0  0  0  0  0  0  0  0
  141.3690  159.7830  132.6060 O   0  0  0  0  0  0  0  0  0  0  0  0
  142.7530  162.2630  133.7820 H   0  0  0  0  0  0  0  0  0  0  0  0
  142.9180  160.5870  133.1620 H   0  0  0  0  0  0  0  0  0  0  0  0
  147.5938  161.4140  133.4057 H   0  0  0  0  0  0  0  0  0  0  0  0
  149.6119  159.4770  132.8330 H   0  0  0  0  0  0  0  0  0  0  0  0
  149.9719  157.0277  132.3950 H   0  0  0  0  0  0  0  0  0  0  0  0
  148.1030  154.7830  131.3580 H   0  0  0  0  0  0  0  0  0  0  0  0
  148.4960  154.5001  134.3108 H   0  0  0  0  0  0  0  0  0  0  0  0
  147.1039  153.6420  133.5369 H   0  0  0  0  0  0  0  0  0  0  0  0
  149.8503  152.8122  133.6853 H   0  0  0  0  0  0  0  0  0  0  0  0
  148.4600  151.9870  132.8864 H   0  0  0  0  0  0  0  0  0  0  0  0
  150.5800  153.1150  131.7890 H   0  0  0  0  0  0  0  0  0  0  0  0
  145.7030  156.3107  132.9210 H   0  0  0  0  0  0  0  0  0  0  0  0
  141.7315  157.3423  134.2940 H   0  0  0  0  0  0  0  0  0  0  0  0
  141.3917  158.5411  135.5994 H   0  0  0  0  0  0  0  0  0  0  0  0
  140.0089  158.3826  133.2201 H   0  0  0  0  0  0  0  0  0  0  0  0
  140.1454  159.8629  134.2400 H   0  0  0  0  0  0  0  0  0  0  0  0
  142.1610  159.2270  132.3790 H   0  0  0  0  0  0  0  0  0  0  0  0
  1  2  1  0
  2  3  2  0
  2  4  1  0
  4  5  2  0
  5  6  1  0
  6  7  2  0
  7  8  1  0
  8  9  2  0
  9 10  1  0
 10 11  1  0
 11 12  1  0
 12 13  1  0
  9 14  1  0
 14 15  2  0
 15 16  1  0
 16 17  1  0
 17 18  2  0
 17 19  1  0
 19 20  1  0
 20 21  1  0
 21 22  1  0
 16  4  1  0
 15  6  1  0
  1 23  1  0
  1 24  1  0
  5 25  1  0
  7 26  1  0
  8 27  1  0
 10 28  1  0
 11 29  1  0
 11 30  1  0
 12 31  1  0
 12 32  1  0
 13 33  1  0
 14 34  1  0
 20 35  1  0
 20 36  1  0
 21 37  1  0
 21 38  1  0
 22 39  1  0
M  END
>  <UniqueID>  (17) 
17

>  <SMILES>  (17) 
NC(=O)c1cc2ccc(NCCO)cc2n1C(=O)OCCO

>  <Energy>  (17) 
72.18830478872306

>  <Genealogy>  (17) 
NC(=O)c1cc2ccc(NCCO)cc2n1C(=O)OCCO (3D coordinates assigned)
NC(=O)c1cc2ccc(NCCO)cc2n1C(=O)OCCO (optimized conformer: 72.18830478872306 kcal/mol)

>  <smiles>  (17) 
NC(=O)c1cc2ccc(NCCO)cc2n1C(=O)OCCO

>  <score_type>  (17) 
oracle

>  <origin>  (17) 
adg

>  <m_score__min__energy>  (17) 
-6.2599999999999998

>  <m_primary>  (17) 
energy

$$$$
18:0
     RDKit          3D

 39 41  0  0  0  0  0  0  0  0999 V2000
  142.1230  160.9880  133.7250 C   0  0  0  0  0  0  0  0  0  0  0  0
  141.6580  159.5150  133.7490 C   0  0  2  0  0  0  0  0  0  0  0  0
  142.5770  158.6490  132.9750 N   0  0  0  0  0  0  0  0  0  0  0  0
  143.8350  158.1020  133.4250 C   0  0  0  0  0  0  0  0  0  0  0  0
  145.0670  158.7900  133.2550 C   0  0  0  0  0  0  0  0  0  0  0  0
  146.2760  158.2140  133.6780 C   0  0  0  0  0  0  0  0  0  0  0  0
  146.2330  156.9510  134.2570 C   0  0  0  0  0  0  0  0  0  0  0  0
  147.2520  156.1610  134.7370 C   0  0  0  0  0  0  0  0  0  0  0  0
  146.6330  155.0000  135.1960 C   0  0  0  0  0  0  0  0  0  0  0  0
  147.3630  153.9190  135.8890 C   0  0  0  0  0  0  0  0  0  0  0  0
  146.8310  153.3610  137.0880 N   0  0  0  0  0  0  0  0  0  0  0  0
  148.4270  153.4460  135.4070 O   0  0  0  0  0  0  0  0  0  0  0  0
  145.2850  155.0640  134.9930 N   0  0  0  0  0  0  0  0  0  0  0  0
  144.2900  154.0550  135.2380 C   0  0  0  0  0  0  0  0  0  0  0  0
  143.9240  153.7750  136.4080 O   0  0  0  0  0  0  0  0  0  0  0  0
  145.0580  156.2680  134.4250 C   0  0  0  0  0  0  0  0  0  0  0  0
  143.8400  156.8120  134.0040 C   0  0  0  0  0  0  0  0  0  0  0  0
  140.2100  159.3620  133.2170 C   0  0  0  0  0  0  0  0  0  0  0  0
  139.6430  158.0300  133.7050 C   0  0  0  0  0  0  0  0  0  0  0  0
  140.4190  157.7350  135.2630 S   0  0  0  0  0  0  0  0  0  0  0  0
  141.0630  156.3790  135.3130 O   0  0  0  0  0  0  0  0  0  0  0  0
  139.4570  157.9130  136.4050 O   0  0  0  0  0  0  0  0  0  0  0  0
  141.6220  159.0290  135.2190 C   0  0  0  0  0  0  0  0  0  0  0  0
  142.2382  161.3530  134.7563 H   0  0  0  0  0  0  0  0  0  0  0  0
  143.0874  161.0596  133.2008 H   0  0  0  0  0  0  0  0  0  0  0  0
  141.3745  161.6003  133.2008 H   0  0  0  0  0  0  0  0  0  0  0  0
  142.2210  158.2610  132.0710 H   0  0  0  0  0  0  0  0  0  0  0  0
  145.0736  159.7853  132.7866 H   0  0  0  0  0  0  0  0  0  0  0  0
  147.2301  158.7473  133.5546 H   0  0  0  0  0  0  0  0  0  0  0  0
  148.3265  156.3958  134.7547 H   0  0  0  0  0  0  0  0  0  0  0  0
  145.8490  153.5600  137.3830 H   0  0  0  0  0  0  0  0  0  0  0  0
  143.8418  153.5194  134.3881 H   0  0  0  0  0  0  0  0  0  0  0  0
  142.9036  156.2468  134.1212 H   0  0  0  0  0  0  0  0  0  0  0  0
  139.5889  160.1881  133.5935 H   0  0  0  0  0  0  0  0  0  0  0  0
  140.2119  159.3863  132.1173 H   0  0  0  0  0  0  0  0  0  0  0  0
  138.5516  158.0968  133.8248 H   0  0  0  0  0  0  0  0  0  0  0  0
  139.8359  157.2162  132.9905 H   0  0  0  0  0  0  0  0  0  0  0  0
  141.3265  159.8508  135.8879 H   0  0  0  0  0  0  0  0  0  0  0  0
  142.6088  158.6787  135.5560 H   0  0  0  0  0  0  0  0  0  0  0  0
  1  2  1  0
  2  3  1  6
  3  4  1  0
  4  5  2  0
  5  6  1  0
  6  7  2  0
  7  8  1  0
  8  9  2  0
  9 10  1  0
 10 11  1  0
 10 12  2  0
  9 13  1  0
 13 14  1  0
 14 15  2  0
 13 16  1  0
 16 17  2  0
  2 18  1  0
 18 19  1  0
 19 20  1  0
 20 21  2  0
 20 22  2  0
 20 23  1  0
 23  2  1  0
 17  4  1  0
 16  7  1  0
  1 24  1  0
  1 25  1  0
  1 26  1  0
  3 27  1  0
  5 28  1  0
  6 29  1  0
  8 30  1  0
 11 31  1  0
 14 32  1  0
 17 33  1  0
 18 34  1  0
 18 35  1  0
 19 36  1  0
 19 37  1  0
 23 38  1  0
 23 39  1  0
M  CHG  1  11  -1
M  END
>  <UniqueID>  (18) 
18

>  <SMILES>  (18) 
C[C@]1(Nc2ccc3cc(C([NH-])=O)n(C=O)c3c2)CCS(=O)(=O)C1

>  <Energy>  (18) 
82.24042427992197

>  <Genealogy>  (18) 
C[C@]1(Nc2ccc3cc(C([NH-])=O)n(C=O)c3c2)CCS(=O)(=O)C1 (protonated)
C[C@]1(Nc2ccc3cc(C([NH-])=O)n(C=O)c3c2)CCS(=O)(=O)C1 (3D coordinates assigned)
C[C@]1(Nc2ccc3cc(C([NH-])=O)n(C=O)c3c2)CCS(=O)(=O)C1 (nonaromatic ring conformer: 82.24042427992197 kcal/mol)

>  <smiles>  (18) 
C[C@]1(Nc2ccc3cc(C(N)=O)n(C=O)c3c2)CCS(=O)(=O)C1

>  <score_type>  (18) 
oracle

>  <origin>  (18) 
adg

>  <m_score__min__energy>  (18) 
-8.3900000000000006

>  <m_primary>  (18) 
energy

$$$$
19:0
     RDKit          3D

 41 42  0  0  0  0  0  0  0  0999 V2000
  145.7830  161.2330  133.7270 N   0  0  0  0  0  0  0  0  0  0  0  0
  144.7390  160.2620  133.7010 C   0  0  0  0  0  0  0  0  0  0  0  0
  143.5420  160.6440  133.7750 O   0  0  0  0  0  0  0  0  0  0  0  0
  145.0760  158.8250  133.6290 C   0  0  0  0  0  0  0  0  0  0  0  0
  144.1680  157.8120  133.9260 C   0  0  0  0  0  0  0  0  0  0  0  0
  144.8290  156.6370  133.6620 C   0  0  0  0  0  0  0  0  0  0  0  0
  144.4000  155.3210  133.7920 C   0  0  0  0  0  0  0  0  0  0  0  0
  145.3050  154.2950  133.4730 C   0  0  0  0  0  0  0  0  0  0  0  0
  146.6250  154.6000  133.0440 C   0  0  0  0  0  0  0  0  0  0  0  0
  147.5780  153.5680  132.7180 N   0  0  0  0  0  0  0  0  0  0  0  0
  148.5020  152.9530  133.6730 C   0  0  0  0  0  0  0  0  0  0  0  0
  149.5430  152.1040  132.9450 C   0  0  0  0  0  0  0  0  0  0  0  0
  149.6320  152.5180  131.6110 O   0  0  0  0  0  0  0  0  0  0  0  0
  147.0190  155.9510  132.9210 C   0  0  0  0  0  0  0  0  0  0  0  0
  146.0890  156.9530  133.2260 C   0  0  0  0  0  0  0  0  0  0  0  0
  146.2600  158.2940  133.2020 N   0  0  0  0  0  0  0  0  0  0  0  0
  147.4650  158.9900  132.8470 C   0  0  0  0  0  0  0  0  0  0  0  0
  148.0530  159.7080  133.7020 O   0  0  0  0  0  0  0  0  0  0  0  0
  147.9980  158.8430  131.5600 O   0  0  0  0  0  0  0  0  0  0  0  0
  149.3960  158.8120  131.2740 C   0  0  0  0  0  0  0  0  0  0  0  0
  149.9130  160.2040  130.8970 C   0  0  0  0  0  0  0  0  0  0  0  0
  148.7900  161.2100  130.6330 C   0  0  0  0  0  0  0  0  0  0  0  0
  148.2010  161.6050  131.8400 O   0  0  0  0  0  0  0  0  0  0  0  0
  146.5730  161.1910  133.0450 H   0  0  0  0  0  0  0  0  0  0  0  0
  143.1381  157.9281  134.2945 H   0  0  0  0  0  0  0  0  0  0  0  0
  143.3807  155.0897  134.1350 H   0  0  0  0  0  0  0  0  0  0  0  0
  144.9886  153.2448  133.5561 H   0  0  0  0  0  0  0  0  0  0  0  0
  147.6120  153.2170  131.7330 H   0  0  0  0  0  0  0  0  0  0  0  0
  149.0138  153.7438  134.2410 H   0  0  0  0  0  0  0  0  0  0  0  0
  147.9293  152.3052  134.3530 H   0  0  0  0  0  0  0  0  0  0  0  0
  150.5214  152.2255  133.4328 H   0  0  0  0  0  0  0  0  0  0  0  0
  149.2441  151.0460  132.9816 H   0  0  0  0  0  0  0  0  0  0  0  0
  150.5120  152.9670  131.5200 H   0  0  0  0  0  0  0  0  0  0  0  0
  148.0360  156.2110  132.5922 H   0  0  0  0  0  0  0  0  0  0  0  0
  149.9368  158.4567  132.1635 H   0  0  0  0  0  0  0  0  0  0  0  0
  149.5636  158.1349  130.4234 H   0  0  0  0  0  0  0  0  0  0  0  0
  150.5348  160.5819  131.7220 H   0  0  0  0  0  0  0  0  0  0  0  0
  150.4861  160.0996  129.9639 H   0  0  0  0  0  0  0  0  0  0  0  0
  149.2052  162.0931  130.1252 H   0  0  0  0  0  0  0  0  0  0  0  0
  148.0259  160.7367  129.9988 H   0  0  0  0  0  0  0  0  0  0  0  0
  147.4660  160.9600  132.0110 H   0  0  0  0  0  0  0  0  0  0  0  0
  1  2  1  0
  2  3  2  0
  2  4  1  0
  4  5  2  0
  5  6  1  0
  6  7  2  0
  7  8  1  0
  8  9  2  0
  9 10  1  0
 10 11  1  0
 11 12  1  0
 12 13  1  0
  9 14  1  0
 14 15  2  0
 15 16  1  0
 16 17  1  0
 17 18  2  0
 17 19  1  0
 19 20  1  0
 20 21  1  0
 21 22  1  0
 22 23  1  0
 16  4  1  0
 15  6  1  0
  1 24  1  0
  5 25  1  0
  7 26  1  0
  8 27  1  0
 10 28  1  0
 11 29  1  0
 11 30  1  0
 12 31  1  0
 12 32  1  0
 13 33  1  0
 14 34  1  0
 20 35  1  0
 20 36  1  0
 21 37  1  0
 21 38  1  0
 22 39  1  0
 22 40  1  0
 23 41  1  0
M  CHG  1   1  -1
M  END
>  <UniqueID>  (19) 
19

>  <SMILES>  (19) 
[NH-]C(=O)c1cc2ccc(NCCO)cc2n1C(=O)OCCCO

>  <Energy>  (19) 
72.67452375537205

>  <Genealogy>  (19) 
[NH-]C(=O)c1cc2ccc(NCCO)cc2n1C(=O)OCCCO (protonated)
[NH-]C(=O)c1cc2ccc(NCCO)cc2n1C(=O)OCCCO (3D coordinates assigned)
[NH-]C(=O)c1cc2ccc(NCCO)cc2n1C(=O)OCCCO (optimized conformer: 72.67452375537205 kcal/mol)

>  <smiles>  (19) 
NC(=O)c1cc2ccc(NCCO)cc2n1C(=O)OCCCO

>  <score_type>  (19) 
oracle

>  <origin>  (19) 
adg

>  <m_score__min__energy>  (19) 
-5.5199999999999996

>  <m_primary>  (19) 
energy

$$$$
20:0
     RDKit          3D

 33 34  0  0  0  0  0  0  0  0999 V2000
  146.8600  161.1920  133.4170 N   0  0  0  0  0  0  0  0  0  0  0  0
  145.8670  160.1650  133.4030 C   0  0  0  0  0  0  0  0  0  0  0  0
  144.6530  160.4910  133.4660 O   0  0  0  0  0  0  0  0  0  0  0  0
  146.2480  158.7360  133.3010 C   0  0  0  0  0  0  0  0  0  0  0  0
  145.4090  157.6680  133.6250 C   0  0  0  0  0  0  0  0  0  0  0  0
  146.1640  156.5350  133.4220 C   0  0  0  0  0  0  0  0  0  0  0  0
  145.8220  155.1950  133.5700 C   0  0  0  0  0  0  0  0  0  0  0  0
  146.7920  154.2290  133.2550 C   0  0  0  0  0  0  0  0  0  0  0  0
  148.0750  154.6180  132.7920 C   0  0  0  0  0  0  0  0  0  0  0  0
  149.1030  153.5830  132.4350 C   0  0  0  0  0  0  0  0  0  0  0  0
  150.3230  154.1950  132.2190 F   0  0  0  0  0  0  0  0  0  0  0  0
  149.2260  152.6720  133.4690 F   0  0  0  0  0  0  0  0  0  0  0  0
  148.3820  155.9890  132.6510 C   0  0  0  0  0  0  0  0  0  0  0  0
  147.4050  156.9280  132.9940 C   0  0  0  0  0  0  0  0  0  0  0  0
  147.4760  158.2750  132.9290 N   0  0  0  0  0  0  0  0  0  0  0  0
  148.5920  159.0620  132.4800 C   0  0  0  0  0  0  0  0  0  0  0  0
  149.6400  159.0940  133.1810 O   0  0  0  0  0  0  0  0  0  0  0  0
  148.5270  159.8840  131.2080 C   0  0  1  0  0  0  0  0  0  0  0  0
  148.8140  161.2370  131.4720 O   0  0  0  0  0  0  0  0  0  0  0  0
  149.4470  159.3560  130.0910 C   0  0  0  0  0  0  0  0  0  0  0  0
  150.6340  160.1010  130.0180 O   0  0  0  0  0  0  0  0  0  0  0  0
  147.8790  160.9700  133.4360 H   0  0  0  0  0  0  0  0  0  0  0  0
  146.5720  162.1950  133.4540 H   0  0  0  0  0  0  0  0  0  0  0  0
  144.3657  157.7208  133.9695 H   0  0  0  0  0  0  0  0  0  0  0  0
  144.8226  154.9007  133.9229 H   0  0  0  0  0  0  0  0  0  0  0  0
  146.5544  153.1610  133.3685 H   0  0  0  0  0  0  0  0  0  0  0  0
  148.7860  153.0604  131.5205 H   0  0  0  0  0  0  0  0  0  0  0  0
  149.3664  156.3104  132.2801 H   0  0  0  0  0  0  0  0  0  0  0  0
  147.4948  159.7912  130.8393 H   0  0  0  0  0  0  0  0  0  0  0  0
  149.7940  161.3160  131.6120 H   0  0  0  0  0  0  0  0  0  0  0  0
  149.6953  158.3045  130.2975 H   0  0  0  0  0  0  0  0  0  0  0  0
  148.9180  159.4478  129.1309 H   0  0  0  0  0  0  0  0  0  0  0  0
  150.7670  160.5230  130.9060 H   0  0  0  0  0  0  0  0  0  0  0  0
  1  2  1  0
  2  3  2  0
  2  4  1  0
  4  5  2  0
  5  6  1  0
  6  7  2  0
  7  8  1  0
  8  9  2  0
  9 10  1  0
 10 11  1  0
 10 12  1  0
  9 13  1  0
 13 14  2  0
 14 15  1  0
 15 16  1  0
 16 17  2  0
 16 18  1  0
 18 19  1  0
 18 20  1  0
 20 21  1  0
 15  4  1  0
 14  6  1  0
  1 22  1  0
  1 23  1  0
  5 24  1  0
  7 25  1  0
  8 26  1  0
 10 27  1  0
 13 28  1  0
 18 29  1  6
 19 30  1  0
 20 31  1  0
 20 32  1  0
 21 33  1  0
M  END
>  <UniqueID>  (20) 
20

>  <SMILES>  (20) 
NC(=O)c1cc2ccc(C(F)F)cc2n1C(=O)[C@@H](O)CO

>  <Energy>  (20) 
72.19961178112713

>  <Genealogy>  (20) 
NC(=O)c1cc2ccc(C(F)F)cc2n1C(=O)[C@@H](O)CO (3D coordinates assigned)
NC(=O)c1cc2ccc(C(F)F)cc2n1C(=O)[C@@H](O)CO (optimized conformer: 72.19961178112713 kcal/mol)

>  <smiles>  (20) 
NC(=O)c1cc2ccc(C(F)F)cc2n1C(=O)[C@@H](O)CO

>  <score_type>  (20) 
oracle

>  <origin>  (20) 
adg

>  <m_score__min__energy>  (20) 
-5.9900000000000002

>  <m_primary>  (20) 
energy

$$$$
21:0
     RDKit          3D

 45 47  0  0  0  0  0  0  0  0999 V2000
  149.2020  159.9570  130.1290 C   0  0  0  0  0  0  0  0  0  0  0  0
  148.5390  159.3060  131.2670 N   0  0  0  0  0  0  0  0  0  0  0  0
  149.5050  159.0580  132.3580 C   0  0  0  0  0  0  0  0  0  0  0  0
  148.8410  158.8240  133.7380 C   0  0  0  0  0  0  0  0  0  0  0  0
  147.3330  158.4630  133.6990 C   0  0  0  0  0  0  0  0  0  0  0  0
  147.0420  156.9350  133.7510 C   0  0  0  0  0  0  0  0  0  0  0  0
  146.2390  156.3920  132.6330 N   0  0  0  0  0  0  0  0  0  0  0  0
  144.8420  156.2060  132.9550 C   0  0  0  0  0  0  0  0  0  0  0  0
  144.2670  154.9070  132.9140 C   0  0  0  0  0  0  0  0  0  0  0  0
  142.9190  154.7040  133.2450 C   0  0  0  0  0  0  0  0  0  0  0  0
  142.1700  155.8080  133.6380 C   0  0  0  0  0  0  0  0  0  0  0  0
  140.8590  155.8870  134.0460 C   0  0  0  0  0  0  0  0  0  0  0  0
  140.6470  157.2290  134.3520 C   0  0  0  0  0  0  0  0  0  0  0  0
  139.3320  157.7700  134.7550 C   0  0  0  0  0  0  0  0  0  0  0  0
  139.1070  158.2410  136.0810 N   0  0  0  0  0  0  0  0  0  0  0  0
  138.4100  157.8650  133.9020 O   0  0  0  0  0  0  0  0  0  0  0  0
  141.7870  157.9500  134.1540 N   0  0  0  0  0  0  0  0  0  0  0  0
  142.0100  159.3420  134.4310 C   0  0  0  0  0  0  0  0  0  0  0  0
  142.8340  160.0040  133.7460 O   0  0  0  0  0  0  0  0  0  0  0  0
  141.2990  159.9790  135.4400 O   0  0  0  0  0  0  0  0  0  0  0  0
  142.7090  157.0650  133.7130 C   0  0  0  0  0  0  0  0  0  0  0  0
  144.0550  157.2930  133.4080 C   0  0  0  0  0  0  0  0  0  0  0  0
  146.5170  159.2320  132.6260 C   0  0  0  0  0  0  0  0  0  0  0  0
  147.3950  160.1020  131.7280 C   0  0  0  0  0  0  0  0  0  0  0  0
  149.9407  160.6823  130.5009 H   0  0  0  0  0  0  0  0  0  0  0  0
  149.7101  159.1972  129.5170 H   0  0  0  0  0  0  0  0  0  0  0  0
  148.4516  160.4789  129.5170 H   0  0  0  0  0  0  0  0  0  0  0  0
  150.0965  158.1667  132.1019 H   0  0  0  0  0  0  0  0  0  0  0  0
  150.1251  159.9620  132.4493 H   0  0  0  0  0  0  0  0  0  0  0  0
  149.3742  158.0006  134.2357 H   0  0  0  0  0  0  0  0  0  0  0  0
  148.9090  159.7827  134.2731 H   0  0  0  0  0  0  0  0  0  0  0  0
  146.9417  158.8454  134.6533 H   0  0  0  0  0  0  0  0  0  0  0  0
  148.0075  156.4081  133.7596 H   0  0  0  0  0  0  0  0  0  0  0  0
  146.4371  156.7776  134.6562 H   0  0  0  0  0  0  0  0  0  0  0  0
  146.6250  155.4500  132.3870 H   0  0  0  0  0  0  0  0  0  0  0  0
  146.3580  156.9850  131.7820 H   0  0  0  0  0  0  0  0  0  0  0  0
  144.8879  154.0484  132.6185 H   0  0  0  0  0  0  0  0  0  0  0  0
  142.4680  153.7019  133.1952 H   0  0  0  0  0  0  0  0  0  0  0  0
  140.1319  155.0645  134.1158 H   0  0  0  0  0  0  0  0  0  0  0  0
  139.4770  159.1660  136.3930 H   0  0  0  0  0  0  0  0  0  0  0  0
  144.4933  158.2959  133.5177 H   0  0  0  0  0  0  0  0  0  0  0  0
  145.9859  158.5018  131.9978 H   0  0  0  0  0  0  0  0  0  0  0  0
  145.8192  159.8984  133.1542 H   0  0  0  0  0  0  0  0  0  0  0  0
  146.8110  160.4456  130.8615 H   0  0  0  0  0  0  0  0  0  0  0  0
  147.7522  160.9771  132.2907 H   0  0  0  0  0  0  0  0  0  0  0  0
  1  2  1  0
  2  3  1  0
  3  4  1  0
  4  5  1  0
  5  6  1  0
  6  7  1  0
  7  8  1  0
  8  9  2  0
  9 10  1  0
 10 11  2  0
 11 12  1  0
 12 13  2  0
 13 14  1  0
 14 15  1  0
 14 16  2  0
 13 17  1  0
 17 18  1  0
 18 19  2  0
 18 20  1  0
 17 21  1  0
 21 22  2  0
  5 23  1  0
 23 24  1  0
 24  2  1  0
 22  8  1  0
 21 11  1  0
  1 25  1  0
  1 26  1  0
  1 27  1  0
  3 28  1  0
  3 29  1  0
  4 30  1  0
  4 31  1  0
  5 32  1  0
  6 33  1  0
  6 34  1  0
  7 35  1  0
  7 36  1  0
  9 37  1  0
 10 38  1  0
 12 39  1  0
 15 40  1  0
 22 41  1  0
 23 42  1  0
 23 43  1  0
 24 44  1  0
 24 45  1  0
M  CHG  3   7   1  15  -1  20  -1
M  END
>  <UniqueID>  (21) 
21

>  <SMILES>  (21) 
CN1CCC(C[NH2+]c2ccc3cc(C([NH-])=O)n(C(=O)[O-])c3c2)CC1

>  <Energy>  (21) 
99.1175016349522

>  <Genealogy>  (21) 
CN1CCC(C[NH2+]c2ccc3cc(C([NH-])=O)n(C(=O)[O-])c3c2)CC1 (protonated)
CN1CCC(C[NH2+]c2ccc3cc(C([NH-])=O)n(C(=O)[O-])c3c2)CC1 (3D coordinates assigned)
CN1CCC(C[NH2+]c2ccc3cc(C([NH-])=O)n(C(=O)[O-])c3c2)CC1 (nonaromatic ring conformer: 99.1175016349522 kcal/mol)

>  <smiles>  (21) 
CN1CCC(CNc2ccc3cc(C(N)=O)n(C(=O)O)c3c2)CC1

>  <score_type>  (21) 
oracle

>  <origin>  (21) 
adg

>  <m_score__min__energy>  (21) 
-7.9100000000000001

>  <m_primary>  (21) 
energy

$$$$
22:0
     RDKit          3D

 61 63  0  0  0  0  0  0  0  0999 V2000
  139.4750  146.5730  129.9670 C   0  0  0  0  0  0  0  0  0  0  0  0
  139.0580  147.9350  129.9910 O   0  0  0  0  0  0  0  0  0  0  0  0
  139.6100  148.9160  130.8290 C   0  0  0  0  0  0  0  0  0  0  0  0
  140.9700  148.8280  131.1520 C   0  0  0  0  0  0  0  0  0  0  0  0
  141.5680  149.7860  131.9770 C   0  0  0  0  0  0  0  0  0  0  0  0
  140.8090  150.8460  132.4950 C   0  0  0  0  0  0  0  0  0  0  0  0
  141.4630  151.8890  133.3590 C   0  0  0  0  0  0  0  0  0  0  0  0
  141.5340  153.1400  132.6770 O   0  0  0  0  0  0  0  0  0  0  0  0
  140.9590  154.3150  133.1750 C   0  0  0  0  0  0  0  0  0  0  0  0
  139.8820  154.7610  132.6930 O   0  0  0  0  0  0  0  0  0  0  0  0
  141.5930  155.0130  134.3380 C   0  0  0  0  0  0  0  0  0  0  0  0
  141.1310  156.4730  134.4380 C   0  0  0  0  0  0  0  0  0  0  0  0
  142.2380  157.4360  134.0850 C   0  0  0  0  0  0  0  0  0  0  0  0
  141.9720  158.8240  134.0100 C   0  0  0  0  0  0  0  0  0  0  0  0
  143.0070  159.7370  133.7510 C   0  0  0  0  0  0  0  0  0  0  0  0
  144.2940  159.2350  133.5850 C   0  0  0  0  0  0  0  0  0  0  0  0
  145.4690  159.8950  133.3070 C   0  0  0  0  0  0  0  0  0  0  0  0
  146.4400  158.9020  133.2430 C   0  0  0  0  0  0  0  0  0  0  0  0
  147.8730  159.1760  133.0180 C   0  0  0  0  0  0  0  0  0  0  0  0
  148.8770  158.3040  133.5350 N   0  0  0  0  0  0  0  0  0  0  0  0
  148.2150  160.2120  132.3910 O   0  0  0  0  0  0  0  0  0  0  0  0
  145.8920  157.6730  133.4570 N   0  0  0  0  0  0  0  0  0  0  0  0
  146.5430  156.3960  133.3280 C   0  0  0  0  0  0  0  0  0  0  0  0
  147.6120  156.3050  132.6570 O   0  0  0  0  0  0  0  0  0  0  0  0
  145.9850  155.2650  133.9390 O   0  0  0  0  0  0  0  0  0  0  0  0
  145.4960  154.0930  133.2710 C   0  0  0  0  0  0  0  0  0  0  0  0
  146.6610  153.1480  132.9120 C   0  0  0  0  0  0  0  0  0  0  0  0
  144.8170  154.5600  131.9750 C   0  0  0  0  0  0  0  0  0  0  0  0
  144.4560  153.3640  134.1460 C   0  0  0  0  0  0  0  0  0  0  0  0
  144.5750  157.8940  133.6700 C   0  0  0  0  0  0  0  0  0  0  0  0
  143.5570  156.9620  133.9070 C   0  0  0  0  0  0  0  0  0  0  0  0
  139.4440  150.9340  132.1780 C   0  0  0  0  0  0  0  0  0  0  0  0
  138.8470  149.9780  131.3520 C   0  0  0  0  0  0  0  0  0  0  0  0
  139.5874  146.2057  130.9978 H   0  0  0  0  0  0  0  0  0  0  0  0
  138.7210  145.9679  129.4423 H   0  0  0  0  0  0  0  0  0  0  0  0
  140.4386  146.4937  129.4423 H   0  0  0  0  0  0  0  0  0  0  0  0
  141.5727  147.9986  130.7535 H   0  0  0  0  0  0  0  0  0  0  0  0
  142.6378  149.7080  132.2207 H   0  0  0  0  0  0  0  0  0  0  0  0
  140.8758  152.0136  134.2808 H   0  0  0  0  0  0  0  0  0  0  0  0
  142.4849  151.5590  133.5976 H   0  0  0  0  0  0  0  0  0  0  0  0
  141.3178  154.4868  135.2639 H   0  0  0  0  0  0  0  0  0  0  0  0
  142.6833  155.0053  134.1924 H   0  0  0  0  0  0  0  0  0  0  0  0
  140.2897  156.6285  133.7466 H   0  0  0  0  0  0  0  0  0  0  0  0
  140.8285  156.6657  135.4779 H   0  0  0  0  0  0  0  0  0  0  0  0
  140.9453  159.1909  134.1559 H   0  0  0  0  0  0  0  0  0  0  0  0
  142.8064  160.8163  133.6815 H   0  0  0  0  0  0  0  0  0  0  0  0
  145.6099  160.9767  133.1657 H   0  0  0  0  0  0  0  0  0  0  0  0
  148.6260  157.5070  134.1640 H   0  0  0  0  0  0  0  0  0  0  0  0
  149.8860  158.4930  133.3440 H   0  0  0  0  0  0  0  0  0  0  0  0
  147.1254  152.7713  133.8353 H   0  0  0  0  0  0  0  0  0  0  0  0
  146.2784  152.3019  132.3224 H   0  0  0  0  0  0  0  0  0  0  0  0
  147.4100  153.6969  132.3224 H   0  0  0  0  0  0  0  0  0  0  0  0
  143.9338  155.1674  132.2221 H   0  0  0  0  0  0  0  0  0  0  0  0
  145.5244  155.1635  131.3874 H   0  0  0  0  0  0  0  0  0  0  0  0
  144.5065  153.6835  131.3874 H   0  0  0  0  0  0  0  0  0  0  0  0
  144.6905  153.5284  135.2080 H   0  0  0  0  0  0  0  0  0  0  0  0
  143.4523  153.7573  133.9270 H   0  0  0  0  0  0  0  0  0  0  0  0
  144.4834  152.2864  133.9270 H   0  0  0  0  0  0  0  0  0  0  0  0
  143.7792  155.8857  133.9535 H   0  0  0  0  0  0  0  0  0  0  0  0
  138.8410  151.7604  132.5823 H   0  0  0  0  0  0  0  0  0  0  0  0
  137.7769  150.0552  131.1093 H   0  0  0  0  0  0  0  0  0  0  0  0
  1  2  1  0
  2  3  1  0
  3  4  2  0
  4  5  1  0
  5  6  2  0
  6  7  1  0
  7  8  1  0
  8  9  1  0
  9 10  2  0
  9 11  1  0
 11 12  1  0
 12 13  1  0
 13 14  2  0
 14 15  1  0
 15 16  2  0
 16 17  1  0
 17 18  2  0
 18 19  1  0
 19 20  1  0
 19 21  2  0
 18 22  1  0
 22 23  1  0
 23 24  2  0
 23 25  1  0
 25 26  1  0
 26 27  1  0
 26 28  1  0
 26 29  1  0
 22 30  1  0
 30 31  2  0
  6 32  1  0
 32 33  2  0
 33  3  1  0
 31 13  1  0
 30 16  1  0
  1 34  1  0
  1 35  1  0
  1 36  1  0
  4 37  1  0
  5 38  1  0
  7 39  1  0
  7 40  1  0
 11 41  1  0
 11 42  1  0
 12 43  1  0
 12 44  1  0
 14 45  1  0
 15 46  1  0
 17 47  1  0
 20 48  1  0
 20 49  1  0
 27 50  1  0
 27 51  1  0
 27 52  1  0
 28 53  1  0
 28 54  1  0
 28 55  1  0
 29 56  1  0
 29 57  1  0
 29 58  1  0
 31 59  1  0
 32 60  1  0
 33 61  1  0
M  END
>  <UniqueID>  (22) 
22

>  <SMILES>  (22) 
COc1ccc(COC(=O)CCc2ccc3cc(C(N)=O)n(C(=O)OC(C)(C)C)c3c2)cc1

>  <Energy>  (22) 
89.60583385004531

>  <Genealogy>  (22) 
COc1ccc(COC(=O)CCc2ccc3cc(C(N)=O)n(C(=O)OC(C)(C)C)c3c2)cc1 (3D coordinates assigned)
COc1ccc(COC(=O)CCc2ccc3cc(C(N)=O)n(C(=O)OC(C)(C)C)c3c2)cc1 (optimized conformer: 89.60583385004531 kcal/mol)

>  <smiles>  (22) 
COc1ccc(COC(=O)CCc2ccc3cc(C(N)=O)n(C(=O)OC(C)(C)C)c3c2)cc1

>  <score_type>  (22) 
oracle

>  <origin>  (22) 
adg

>  <m_score__min__energy>  (22) 
-9.3399999999999999

>  <m_primary>  (22) 
energy

$$$$
23:0
     RDKit          3D

 38 40  0  0  0  0  0  0  0  0999 V2000
  148.8530  161.1920  131.0570 C   0  0  0  0  0  0  0  0  0  0  0  0
  148.7140  159.8250  131.6430 C   0  0  0  0  0  0  0  0  0  0  0  0
  149.5910  158.8580  131.5020 O   0  0  0  0  0  0  0  0  0  0  0  0
  149.0990  157.8290  132.1540 C   0  0  0  0  0  0  0  0  0  0  0  0
  149.6800  156.7160  132.2390 O   0  0  0  0  0  0  0  0  0  0  0  0
  147.9370  158.0900  132.7120 O   0  0  0  0  0  0  0  0  0  0  0  0
  147.6690  159.3410  132.4120 C   0  0  0  0  0  0  0  0  0  0  0  0
  146.4320  160.0720  132.8390 C   0  0  0  0  0  0  0  0  0  0  0  0
  145.2720  159.2890  132.5710 O   0  0  0  0  0  0  0  0  0  0  0  0
  144.1060  159.3520  133.3400 C   0  0  0  0  0  0  0  0  0  0  0  0
  143.8240  160.4010  133.9800 O   0  0  0  0  0  0  0  0  0  0  0  0
  143.2350  158.2100  133.4160 N   0  0  0  0  0  0  0  0  0  0  0  0
  143.5850  156.9110  133.6360 C   0  0  0  0  0  0  0  0  0  0  0  0
  144.9360  156.4240  133.9940 C   0  0  0  0  0  0  0  0  0  0  0  0
  146.0500  156.6290  133.1240 N   0  0  0  0  0  0  0  0  0  0  0  0
  145.1180  155.8650  135.1070 O   0  0  0  0  0  0  0  0  0  0  0  0
  142.4780  156.0750  133.5170 C   0  0  0  0  0  0  0  0  0  0  0  0
  141.4230  156.9100  133.2250 C   0  0  0  0  0  0  0  0  0  0  0  0
  140.0850  156.6090  132.9880 C   0  0  0  0  0  0  0  0  0  0  0  0
  139.2190  157.6670  132.6650 C   0  0  0  0  0  0  0  0  0  0  0  0
  139.7070  158.9930  132.5630 C   0  0  0  0  0  0  0  0  0  0  0  0
  138.7700  160.1190  132.2320 C   0  0  0  0  0  0  0  0  0  0  0  0
  138.4130  160.1130  130.4870 Cl  0  0  0  0  0  0  0  0  0  0  0  0
  141.0700  159.2630  132.8210 C   0  0  0  0  0  0  0  0  0  0  0  0
  141.9050  158.1930  133.1650 C   0  0  0  0  0  0  0  0  0  0  0  0
  148.9283  161.9323  131.8671 H   0  0  0  0  0  0  0  0  0  0  0  0
  149.7601  161.2343  130.4362 H   0  0  0  0  0  0  0  0  0  0  0  0
  147.9730  161.4160  130.4362 H   0  0  0  0  0  0  0  0  0  0  0  0
  146.4879  160.2786  133.9180 H   0  0  0  0  0  0  0  0  0  0  0  0
  146.3632  161.0142  132.2755 H   0  0  0  0  0  0  0  0  0  0  0  0
  145.9770  157.2520  132.2890 H   0  0  0  0  0  0  0  0  0  0  0  0
  146.9800  156.2130  133.3550 H   0  0  0  0  0  0  0  0  0  0  0  0
  142.4519  154.9813  133.6317 H   0  0  0  0  0  0  0  0  0  0  0  0
  139.7169  155.5744  133.0517 H   0  0  0  0  0  0  0  0  0  0  0  0
  138.1522  157.4639  132.4897 H   0  0  0  0  0  0  0  0  0  0  0  0
  137.8344  159.9936  132.7967 H   0  0  0  0  0  0  0  0  0  0  0  0
  139.2410  161.0753  132.5032 H   0  0  0  0  0  0  0  0  0  0  0  0
  141.4648  160.2875  132.7533 H   0  0  0  0  0  0  0  0  0  0  0  0
  1  2  1  0
  2  3  1  0
  3  4  1  0
  4  5  2  0
  4  6  1  0
  6  7  1  0
  7  8  1  0
  8  9  1  0
  9 10  1  0
 10 11  2  0
 10 12  1  0
 12 13  1  0
 13 14  1  0
 14 15  1  0
 14 16  2  0
 13 17  2  0
 17 18  1  0
 18 19  2  0
 19 20  1  0
 20 21  2  0
 21 22  1  0
 22 23  1  0
 21 24  1  0
 24 25  2  0
  7  2  2  0
 25 12  1  0
 25 18  1  0
  1 26  1  0
  1 27  1  0
  1 28  1  0
  8 29  1  0
  8 30  1  0
 15 31  1  0
 15 32  1  0
 17 33  1  0
 19 34  1  0
 20 35  1  0
 22 36  1  0
 22 37  1  0
 24 38  1  0
M  END
>  <UniqueID>  (23) 
23

>  <SMILES>  (23) 
Cc1oc(=O)oc1COC(=O)n1c(C(N)=O)cc2ccc(CCl)cc21

>  <Energy>  (23) 
108.19071869757182

>  <Genealogy>  (23) 
Cc1oc(=O)oc1COC(=O)n1c(C(N)=O)cc2ccc(CCl)cc21 (3D coordinates assigned)
Cc1oc(=O)oc1COC(=O)n1c(C(N)=O)cc2ccc(CCl)cc21 (optimized conformer: 108.19071869757182 kcal/mol)

>  <smiles>  (23) 
Cc1oc(=O)oc1COC(=O)n1c(C(N)=O)cc2ccc(CCl)cc21

>  <score_type>  (23) 
oracle

>  <origin>  (23) 
adg

>  <m_score__min__energy>  (23) 
-7.1699999999999999

>  <m_primary>  (23) 
energy

$$$$
24:0
     RDKit          3D

 43 45  0  0  0  0  0  0  0  0999 V2000
  142.8130  156.0330  135.6340 N   0  0  0  0  0  0  0  0  0  0  0  0
  143.9730  155.2570  135.3300 C   0  0  0  0  0  0  0  0  0  0  0  0
  144.0300  154.0590  135.7160 O   0  0  0  0  0  0  0  0  0  0  0  0
  145.0840  155.8300  134.5410 C   0  0  0  0  0  0  0  0  0  0  0  0
  146.3540  155.2630  134.4430 C   0  0  0  0  0  0  0  0  0  0  0  0
  147.1030  156.1700  133.7280 C   0  0  0  0  0  0  0  0  0  0  0  0
  148.4330  156.1170  133.3300 C   0  0  0  0  0  0  0  0  0  0  0  0
  148.9450  157.1970  132.5900 C   0  0  0  0  0  0  0  0  0  0  0  0
  148.1260  158.3110  132.2570 C   0  0  0  0  0  0  0  0  0  0  0  0
  148.6680  159.4270  131.5100 N   0  0  0  0  0  0  0  0  0  0  0  0
  148.0500  160.7450  131.4620 C   0  0  0  0  0  0  0  0  0  0  0  0
  149.0360  161.6440  130.7310 C   0  0  0  0  0  0  0  0  0  0  0  0
  149.9860  160.6990  129.9900 C   0  0  2  0  0  0  0  0  0  0  0  0
  149.6100  160.5640  128.6410 O   0  0  0  0  0  0  0  0  0  0  0  0
  149.8940  159.3620  130.7290 C   0  0  0  0  0  0  0  0  0  0  0  0
  146.7720  158.3170  132.6750 C   0  0  0  0  0  0  0  0  0  0  0  0
  146.2950  157.2330  133.4200 C   0  0  0  0  0  0  0  0  0  0  0  0
  145.0510  157.0350  133.9070 N   0  0  0  0  0  0  0  0  0  0  0  0
  143.9050  157.8700  133.6910 C   0  0  0  0  0  0  0  0  0  0  0  0
  143.3200  157.8610  132.5730 O   0  0  0  0  0  0  0  0  0  0  0  0
  143.4280  158.6700  134.7340 O   0  0  0  0  0  0  0  0  0  0  0  0
  142.0530  159.0240  134.8680 C   0  0  0  0  0  0  0  0  0  0  0  0
  141.6010  158.7700  136.1780 O   0  0  0  0  0  0  0  0  0  0  0  0
  140.4030  157.5530  136.1350 P   0  0  0  0  0  0  0  0  0  0  0  0
  140.5850  156.7380  134.8760 O   0  0  0  0  0  0  0  0  0  0  0  0
  140.5610  156.5320  137.4770 O   0  0  0  0  0  0  0  0  0  0  0  0
  138.8540  158.2390  136.1210 O   0  0  0  0  0  0  0  0  0  0  0  0
  142.0220  155.6040  136.1630 H   0  0  0  0  0  0  0  0  0  0  0  0
  142.7460  157.0400  135.3670 H   0  0  0  0  0  0  0  0  0  0  0  0
  146.6866  154.2968  134.8502 H   0  0  0  0  0  0  0  0  0  0  0  0
  149.0668  155.2553  133.5864 H   0  0  0  0  0  0  0  0  0  0  0  0
  149.9953  157.1802  132.2635 H   0  0  0  0  0  0  0  0  0  0  0  0
  147.0962  160.7003  130.9159 H   0  0  0  0  0  0  0  0  0  0  0  0
  147.8306  161.1241  132.4710 H   0  0  0  0  0  0  0  0  0  0  0  0
  148.5072  162.2934  130.0178 H   0  0  0  0  0  0  0  0  0  0  0  0
  149.5779  162.3024  131.4258 H   0  0  0  0  0  0  0  0  0  0  0  0
  151.0170  161.0824  129.9813 H   0  0  0  0  0  0  0  0  0  0  0  0
  148.9090  161.2440  128.4490 H   0  0  0  0  0  0  0  0  0  0  0  0
  149.8479  158.5296  130.0114 H   0  0  0  0  0  0  0  0  0  0  0  0
  150.7732  159.1897  131.3673 H   0  0  0  0  0  0  0  0  0  0  0  0
  146.1094  159.1569  132.4190 H   0  0  0  0  0  0  0  0  0  0  0  0
  141.9318  160.0943  134.6449 H   0  0  0  0  0  0  0  0  0  0  0  0
  141.4610  158.4194  134.1651 H   0  0  0  0  0  0  0  0  0  0  0  0
  1  2  1  0
  2  3  2  0
  2  4  1  0
  4  5  2  0
  5  6  1  0
  6  7  2  0
  7  8  1  0
  8  9  2  0
  9 10  1  0
 10 11  1  0
 11 12  1  0
 12 13  1  0
 13 14  1  0
 13 15  1  0
  9 16  1  0
 16 17  2  0
 17 18  1  0
 18 19  1  0
 19 20  2  0
 19 21  1  0
 21 22  1  0
 22 23  1  0
 23 24  1  0
 24 25  2  0
 24 26  1  0
 24 27  1  0
 18  4  1  0
 17  6  1  0
 15 10  1  0
  1 28  1  0
  1 29  1  0
  5 30  1  0
  7 31  1  0
  8 32  1  0
 11 33  1  0
 11 34  1  0
 12 35  1  0
 12 36  1  0
 13 37  1  6
 14 38  1  0
 15 39  1  0
 15 40  1  0
 16 41  1  0
 22 42  1  0
 22 43  1  0
M  CHG  2  26  -1  27  -1
M  END
>  <UniqueID>  (24) 
24

>  <SMILES>  (24) 
NC(=O)c1cc2ccc(N3CC[C@H](O)C3)cc2n1C(=O)OCOP(=O)([O-])[O-]

>  <Energy>  (24) 
83.90184863163522

>  <Genealogy>  (24) 
NC(=O)c1cc2ccc(N3CC[C@H](O)C3)cc2n1C(=O)OCOP(=O)([O-])[O-] (protonated)
NC(=O)c1cc2ccc(N3CC[C@H](O)C3)cc2n1C(=O)OCOP(=O)([O-])[O-] (3D coordinates assigned)
NC(=O)c1cc2ccc(N3CC[C@H](O)C3)cc2n1C(=O)OCOP(=O)([O-])[O-] (nonaromatic ring conformer: 83.90184863163522 kcal/mol)

>  <smiles>  (24) 
NC(=O)c1cc2ccc(N3CC[C@H](O)C3)cc2n1C(=O)OCOP(=O)(O)O

>  <score_type>  (24) 
oracle

>  <origin>  (24) 
adg

>  <m_score__min__energy>  (24) 
-6.9000000000000004

>  <m_primary>  (24) 
energy

$$$$
25:0
     RDKit          3D

 44 47  0  0  0  0  0  0  0  0999 V2000
  141.8160  159.0370  132.7650 N   0  0  0  0  0  0  0  0  0  0  0  0
  142.9100  159.1570  133.7050 C   0  0  0  0  0  0  0  0  0  0  0  0
  142.7240  160.0080  134.6000 O   0  0  0  0  0  0  0  0  0  0  0  0
  144.0740  158.3180  133.5400 C   0  0  0  0  0  0  0  0  0  0  0  0
  145.3640  158.8610  133.4260 C   0  0  0  0  0  0  0  0  0  0  0  0
  146.2670  157.8370  133.2820 C   0  0  0  0  0  0  0  0  0  0  0  0
  147.6440  157.8450  133.1320 C   0  0  0  0  0  0  0  0  0  0  0  0
  148.2990  156.6430  133.0060 C   0  0  0  0  0  0  0  0  0  0  0  0
  147.6030  155.4560  133.0270 C   0  0  0  0  0  0  0  0  0  0  0  0
  148.3510  154.2190  132.8890 C   0  0  0  0  0  0  0  0  0  0  0  0
  148.0370  152.9490  133.3200 C   0  0  0  0  0  0  0  0  0  0  0  0
  149.0420  152.1420  132.9570 N   0  0  0  0  0  0  0  0  0  0  0  0
  149.9770  152.8260  132.3190 N   0  0  0  0  0  0  0  0  0  0  0  0
  149.5900  154.1070  132.2570 C   0  0  0  0  0  0  0  0  0  0  0  0
  146.2270  155.4940  133.1770 C   0  0  0  0  0  0  0  0  0  0  0  0
  145.5270  156.6840  133.3070 C   0  0  0  0  0  0  0  0  0  0  0  0
  144.1990  156.9800  133.4640 N   0  0  0  0  0  0  0  0  0  0  0  0
  143.1250  156.0060  133.5360 C   0  0  0  0  0  0  0  0  0  0  0  0
  143.2800  154.8830  134.0480 O   0  0  0  0  0  0  0  0  0  0  0  0
  141.9330  156.3570  133.0210 O   0  0  0  0  0  0  0  0  0  0  0  0
  140.6800  155.9550  133.3470 C   0  0  0  0  0  0  0  0  0  0  0  0
  139.5550  156.6610  133.1260 O   0  0  0  0  0  0  0  0  0  0  0  0
  138.9570  157.8160  133.2940 C   0  0  0  0  0  0  0  0  0  0  0  0
  138.5730  158.2380  134.3960 O   0  0  0  0  0  0  0  0  0  0  0  0
  138.7000  158.7070  132.1400 C   0  0  0  0  0  0  0  0  0  0  0  0
  137.4000  158.9720  131.7670 C   0  0  0  0  0  0  0  0  0  0  0  0
  137.1180  159.7880  130.7080 N   0  0  0  0  0  0  0  0  0  0  0  0
  138.1580  160.3420  130.0190 C   0  0  0  0  0  0  0  0  0  0  0  0
  139.4610  160.0830  130.3830 C   0  0  0  0  0  0  0  0  0  0  0  0
  139.6910  159.2730  131.4330 N   0  0  0  0  0  0  0  0  0  0  0  0
  141.7280  159.7460  131.9790 H   0  0  0  0  0  0  0  0  0  0  0  0
  141.1370  158.2560  132.8850 H   0  0  0  0  0  0  0  0  0  0  0  0
  145.6109  159.9327  133.4484 H   0  0  0  0  0  0  0  0  0  0  0  0
  148.2015  158.7931  133.1141 H   0  0  0  0  0  0  0  0  0  0  0  0
  149.3925  156.6298  132.8870 H   0  0  0  0  0  0  0  0  0  0  0  0
  147.1275  152.6522  133.8628 H   0  0  0  0  0  0  0  0  0  0  0  0
  150.8580  152.4430  131.9330 H   0  0  0  0  0  0  0  0  0  0  0  0
  150.1519  154.9286  131.7888 H   0  0  0  0  0  0  0  0  0  0  0  0
  145.6691  154.5461  133.1936 H   0  0  0  0  0  0  0  0  0  0  0  0
  140.5336  155.0001  132.8209 H   0  0  0  0  0  0  0  0  0  0  0  0
  140.7352  156.0136  134.4440 H   0  0  0  0  0  0  0  0  0  0  0  0
  136.5733  158.5177  132.3329 H   0  0  0  0  0  0  0  0  0  0  0  0
  137.9533  161.0026  129.1636 H   0  0  0  0  0  0  0  0  0  0  0  0
  140.2978  160.5297  129.8260 H   0  0  0  0  0  0  0  0  0  0  0  0
  1  2  1  0
  2  3  2  0
  2  4  1  0
  4  5  2  0
  5  6  1  0
  6  7  2  0
  7  8  1  0
  8  9  2  0
  9 10  1  0
 10 11  1  0
 11 12  2  0
 12 13  1  0
 13 14  1  0
  9 15  1  0
 15 16  2  0
 16 17  1  0
 17 18  1  0
 18 19  2  0
 18 20  1  0
 20 21  1  0
 21 22  1  0
 22 23  1  0
 23 24  2  0
 23 25  1  0
 25 26  2  0
 26 27  1  0
 27 28  2  0
 28 29  1  0
 29 30  2  0
 17  4  1  0
 30 25  1  0
 16  6  1  0
 14 10  2  0
  1 31  1  0
  1 32  1  0
  5 33  1  0
  7 34  1  0
  8 35  1  0
 11 36  1  0
 13 37  1  0
 14 38  1  0
 15 39  1  0
 21 40  1  0
 21 41  1  0
 26 42  1  0
 28 43  1  0
 29 44  1  0
M  END
>  <smiles>  (25) 
NC(=O)c1cc2ccc(-c3cn[nH]c3)cc2n1C(=O)OCOC(=O)c1cnccn1

>  <score_type>  (25) 
oracle

>  <origin>  (25) 
adg

>  <m_score__min__energy>  (25) 
-8.7599999999999998

>  <m_primary>  (25) 
energy

$$$$
26:0
     RDKit          3D

 34 35  0  0  0  0  0  0  0  0999 V2000
  141.7070  158.3470  136.2320 C   0  0  0  0  0  0  0  0  0  0  0  0
  141.9660  158.5530  134.8080 N   0  0  0  0  0  0  0  0  0  0  0  0
  140.4110  158.0550  133.4880 I   0  0  0  0  0  0  0  0  0  0  0  0
  143.2310  159.0660  134.3300 C   0  0  0  0  0  0  0  0  0  0  0  0
  143.4010  160.4550  134.0700 C   0  0  0  0  0  0  0  0  0  0  0  0
  144.6290  160.9610  133.6110 C   0  0  0  0  0  0  0  0  0  0  0  0
  145.6710  160.0630  133.4130 C   0  0  0  0  0  0  0  0  0  0  0  0
  146.9620  160.2810  132.9840 C   0  0  0  0  0  0  0  0  0  0  0  0
  147.5620  159.0230  132.9700 C   0  0  0  0  0  0  0  0  0  0  0  0
  148.9320  158.7730  132.4790 C   0  0  0  0  0  0  0  0  0  0  0  0
  149.3620  157.4380  132.2180 N   0  0  0  0  0  0  0  0  0  0  0  0
  149.7400  159.7250  132.3170 O   0  0  0  0  0  0  0  0  0  0  0  0
  146.6790  158.0710  133.3840 N   0  0  0  0  0  0  0  0  0  0  0  0
  146.9190  156.6690  133.5830 C   0  0  0  0  0  0  0  0  0  0  0  0
  146.8200  155.8750  132.6090 O   0  0  0  0  0  0  0  0  0  0  0  0
  147.1840  156.1240  134.9590 C   0  0  0  0  0  0  0  0  0  0  0  0
  147.1990  154.5910  134.9630 C   0  0  0  0  0  0  0  0  0  0  0  0
  147.5290  154.0340  136.3150 C   0  0  0  0  0  0  0  0  0  0  0  0
  146.9340  153.0090  136.7420 O   0  0  0  0  0  0  0  0  0  0  0  0
  148.4800  154.6580  137.1110 O   0  0  0  0  0  0  0  0  0  0  0  0
  145.5270  158.7230  133.6440 C   0  0  0  0  0  0  0  0  0  0  0  0
  144.3190  158.1900  134.1060 C   0  0  0  0  0  0  0  0  0  0  0  0
  142.4326  158.9241  136.8239 H   0  0  0  0  0  0  0  0  0  0  0  0
  140.6877  158.6839  136.4718 H   0  0  0  0  0  0  0  0  0  0  0  0
  141.8058  157.2780  136.4718 H   0  0  0  0  0  0  0  0  0  0  0  0
  142.5580  161.1431  134.2309 H   0  0  0  0  0  0  0  0  0  0  0  0
  144.7615  162.0352  133.4144 H   0  0  0  0  0  0  0  0  0  0  0  0
  147.4212  161.2425  132.7109 H   0  0  0  0  0  0  0  0  0  0  0  0
  148.6960  156.7230  131.8490 H   0  0  0  0  0  0  0  0  0  0  0  0
  148.1604  156.4919  135.3072 H   0  0  0  0  0  0  0  0  0  0  0  0
  146.3773  156.4629  135.6256 H   0  0  0  0  0  0  0  0  0  0  0  0
  146.2062  154.2258  134.6616 H   0  0  0  0  0  0  0  0  0  0  0  0
  147.9770  154.2580  134.2603 H   0  0  0  0  0  0  0  0  0  0  0  0
  144.2170  157.1106  134.2915 H   0  0  0  0  0  0  0  0  0  0  0  0
  1  2  1  0
  2  3  1  0
  2  4  1  0
  4  5  2  0
  5  6  1  0
  6  7  2  0
  7  8  1  0
  8  9  2  0
  9 10  1  0
 10 11  1  0
 10 12  2  0
  9 13  1  0
 13 14  1  0
 14 15  2  0
 14 16  1  0
 16 17  1  0
 17 18  1  0
 18 19  2  0
 18 20  1  0
 13 21  1  0
 21 22  2  0
 22  4  1  0
 21  7  1  0
  1 23  1  0
  1 24  1  0
  1 25  1  0
  5 26  1  0
  6 27  1  0
  8 28  1  0
 11 29  1  0
 16 30  1  0
 16 31  1  0
 17 32  1  0
 17 33  1  0
 22 34  1  0
M  CHG  2  11  -1  20  -1
M  END
>  <UniqueID>  (26) 
25

>  <SMILES>  (26) 
CN(I)c1ccc2cc(C([NH-])=O)n(C(=O)CCC(=O)[O-])c2c1

>  <Energy>  (26) 
70.95936245842144

>  <Genealogy>  (26) 
CN(I)c1ccc2cc(C([NH-])=O)n(C(=O)CCC(=O)[O-])c2c1 (protonated)
CN(I)c1ccc2cc(C([NH-])=O)n(C(=O)CCC(=O)[O-])c2c1 (3D coordinates assigned)
CN(I)c1ccc2cc(C([NH-])=O)n(C(=O)CCC(=O)[O-])c2c1 (optimized conformer: 70.95936245842144 kcal/mol)

>  <smiles>  (26) 
CN(I)c1ccc2cc(C(N)=O)n(C(=O)CCC(=O)O)c2c1

>  <score_type>  (26) 
oracle

>  <origin>  (26) 
adg

>  <m_score__min__energy>  (26) 
-7.3099999999999996

>  <m_primary>  (26) 
energy

$$$$
27:0
     RDKit          3D

 36 37  0  0  0  0  0  0  0  0999 V2000
  142.9450  161.1770  133.7290 N   0  0  0  0  0  0  0  0  0  0  0  0
  144.3530  161.3940  133.7750 C   0  0  0  0  0  0  0  0  0  0  0  0
  144.7910  162.5380  134.0690 O   0  0  0  0  0  0  0  0  0  0  0  0
  145.3030  160.2860  133.5410 C   0  0  0  0  0  0  0  0  0  0  0  0
  146.6710  160.4770  133.3610 C   0  0  0  0  0  0  0  0  0  0  0  0
  147.2070  159.2130  133.2720 C   0  0  0  0  0  0  0  0  0  0  0  0
  148.5240  158.8120  133.0720 C   0  0  0  0  0  0  0  0  0  0  0  0
  148.7880  157.4360  132.9880 C   0  0  0  0  0  0  0  0  0  0  0  0
  147.7410  156.4860  133.1130 C   0  0  0  0  0  0  0  0  0  0  0  0
  148.0270  155.0140  132.9590 C   0  0  0  0  0  0  0  0  0  0  0  0
  146.9980  154.3840  132.2810 F   0  0  0  0  0  0  0  0  0  0  0  0
  148.1580  154.4430  134.2100 F   0  0  0  0  0  0  0  0  0  0  0  0
  149.1980  154.8160  132.2470 F   0  0  0  0  0  0  0  0  0  0  0  0
  146.4110  156.9360  133.2890 C   0  0  0  0  0  0  0  0  0  0  0  0
  146.1800  158.3130  133.3900 C   0  0  0  0  0  0  0  0  0  0  0  0
  145.0030  158.9560  133.5510 N   0  0  0  0  0  0  0  0  0  0  0  0
  143.7050  158.3430  133.6340 C   0  0  0  0  0  0  0  0  0  0  0  0
  143.2180  157.7600  132.6270 O   0  0  0  0  0  0  0  0  0  0  0  0
  143.0000  158.3730  134.8410 O   0  0  0  0  0  0  0  0  0  0  0  0
  141.6240  158.0240  134.9380 C   0  0  0  0  0  0  0  0  0  0  0  0
  140.8260  159.0830  134.4210 O   0  0  0  0  0  0  0  0  0  0  0  0
  140.3960  159.1310  133.0910 C   0  0  0  0  0  0  0  0  0  0  0  0
  141.0710  159.7430  132.2180 O   0  0  0  0  0  0  0  0  0  0  0  0
  139.1010  158.4930  132.7140 C   0  0  0  0  0  0  0  0  0  0  0  0
  138.6040  159.0690  131.4290 C   0  0  0  0  0  0  0  0  0  0  0  0
  139.0030  158.6040  130.3290 O   0  0  0  0  0  0  0  0  0  0  0  0
  137.6600  160.0880  131.4430 O   0  0  0  0  0  0  0  0  0  0  0  0
  142.5510  160.2100  133.7280 H   0  0  0  0  0  0  0  0  0  0  0  0
  147.2086  161.4349  133.3024 H   0  0  0  0  0  0  0  0  0  0  0  0
  149.3339  159.5509  132.9824 H   0  0  0  0  0  0  0  0  0  0  0  0
  149.8190  157.0897  132.8233 H   0  0  0  0  0  0  0  0  0  0  0  0
  145.5777  156.2202  133.3452 H   0  0  0  0  0  0  0  0  0  0  0  0
  141.4368  157.1079  134.3586 H   0  0  0  0  0  0  0  0  0  0  0  0
  141.3640  157.8517  135.9928 H   0  0  0  0  0  0  0  0  0  0  0  0
  139.2496  157.4097  132.5945 H   0  0  0  0  0  0  0  0  0  0  0  0
  138.3608  158.6824  133.5053 H   0  0  0  0  0  0  0  0  0  0  0  0
  1  2  1  0
  2  3  2  0
  2  4  1  0
  4  5  2  0
  5  6  1  0
  6  7  2  0
  7  8  1  0
  8  9  2  0
  9 10  1  0
 10 11  1  0
 10 12  1  0
 10 13  1  0
  9 14  1  0
 14 15  2  0
 15 16  1  0
 16 17  1  0
 17 18  2  0
 17 19  1  0
 19 20  1  0
 20 21  1  0
 21 22  1  0
 22 23  2  0
 22 24  1  0
 24 25  1  0
 25 26  2  0
 25 27  1  0
 16  4  1  0
 15  6  1  0
  1 28  1  0
  5 29  1  0
  7 30  1  0
  8 31  1  0
 14 32  1  0
 20 33  1  0
 20 34  1  0
 24 35  1  0
 24 36  1  0
M  CHG  2   1  -1  27  -1
M  END
>  <UniqueID>  (27) 
26

>  <SMILES>  (27) 
[NH-]C(=O)c1cc2ccc(C(F)(F)F)cc2n1C(=O)OCOC(=O)CC(=O)[O-]

>  <Energy>  (27) 
69.66969714821664

>  <Genealogy>  (27) 
[NH-]C(=O)c1cc2ccc(C(F)(F)F)cc2n1C(=O)OCOC(=O)CC(=O)[O-] (protonated)
[NH-]C(=O)c1cc2ccc(C(F)(F)F)cc2n1C(=O)OCOC(=O)CC(=O)[O-] (3D coordinates assigned)
[NH-]C(=O)c1cc2ccc(C(F)(F)F)cc2n1C(=O)OCOC(=O)CC(=O)[O-] (optimized conformer: 69.66969714821664 kcal/mol)

>  <smiles>  (27) 
NC(=O)c1cc2ccc(C(F)(F)F)cc2n1C(=O)OCOC(=O)CC(=O)O

>  <score_type>  (27) 
oracle

>  <origin>  (27) 
adg

>  <m_score__min__energy>  (27) 
-6.2300000000000004

>  <m_primary>  (27) 
energy

$$$$
28:0
     RDKit          3D

 37 38  0  0  0  0  0  0  0  0999 V2000
  141.0080  156.7370  138.6990 C   0  0  0  0  0  0  0  0  0  0  0  0
  141.3330  157.6230  137.1930 S   0  0  0  0  0  0  0  0  0  0  0  0
  142.0910  158.8810  137.5120 O   0  0  0  0  0  0  0  0  0  0  0  0
  140.0290  157.9670  136.5300 O   0  0  0  0  0  0  0  0  0  0  0  0
  142.2760  156.6230  136.1410 N   0  0  0  0  0  0  0  0  0  0  0  0
  141.6840  155.6720  135.2550 C   0  0  0  0  0  0  0  0  0  0  0  0
  141.4360  154.5000  135.6470 O   0  0  0  0  0  0  0  0  0  0  0  0
  141.4000  156.0610  133.8430 C   0  0  0  0  0  0  0  0  0  0  0  0
  142.0600  157.2880  133.5570 O   0  0  0  0  0  0  0  0  0  0  0  0
  143.4140  157.3590  133.2150 C   0  0  0  0  0  0  0  0  0  0  0  0
  143.9960  156.3550  132.7210 O   0  0  0  0  0  0  0  0  0  0  0  0
  144.1430  158.5780  133.4330 N   0  0  0  0  0  0  0  0  0  0  0  0
  143.6330  159.8140  133.6980 C   0  0  0  0  0  0  0  0  0  0  0  0
  142.2170  160.1240  133.9800 C   0  0  0  0  0  0  0  0  0  0  0  0
  141.4310  159.2880  134.8290 N   0  0  0  0  0  0  0  0  0  0  0  0
  141.7090  161.1770  133.5090 O   0  0  0  0  0  0  0  0  0  0  0  0
  144.6450  160.7700  133.7290 C   0  0  0  0  0  0  0  0  0  0  0  0
  145.8080  160.0730  133.4860 C   0  0  0  0  0  0  0  0  0  0  0  0
  147.1190  160.5310  133.3930 C   0  0  0  0  0  0  0  0  0  0  0  0
  148.1230  159.5940  133.0960 C   0  0  0  0  0  0  0  0  0  0  0  0
  147.7980  158.2320  132.8910 C   0  0  0  0  0  0  0  0  0  0  0  0
  148.8270  157.2910  132.5780 N   0  0  0  0  0  0  0  0  0  0  0  0
  146.4580  157.8030  132.9920 C   0  0  0  0  0  0  0  0  0  0  0  0
  145.4780  158.7530  133.3090 C   0  0  0  0  0  0  0  0  0  0  0  0
  141.2436  157.3793  139.5604 H   0  0  0  0  0  0  0  0  0  0  0  0
  139.9464  156.4510  138.7344 H   0  0  0  0  0  0  0  0  0  0  0  0
  141.6328  155.8324  138.7344 H   0  0  0  0  0  0  0  0  0  0  0  0
  141.7679  155.2777  133.1639 H   0  0  0  0  0  0  0  0  0  0  0  0
  140.3157  156.1817  133.7026 H   0  0  0  0  0  0  0  0  0  0  0  0
  141.8660  158.5090  135.3720 H   0  0  0  0  0  0  0  0  0  0  0  0
  140.4210  159.5030  134.9880 H   0  0  0  0  0  0  0  0  0  0  0  0
  144.5386  161.8500  133.9089 H   0  0  0  0  0  0  0  0  0  0  0  0
  147.3614  161.5928  133.5471 H   0  0  0  0  0  0  0  0  0  0  0  0
  149.1704  159.9219  133.0222 H   0  0  0  0  0  0  0  0  0  0  0  0
  148.7900  156.7290  131.6980 H   0  0  0  0  0  0  0  0  0  0  0  0
  149.6360  157.1500  133.2230 H   0  0  0  0  0  0  0  0  0  0  0  0
  146.1892  156.7493  132.8261 H   0  0  0  0  0  0  0  0  0  0  0  0
  1  2  1  0
  2  3  2  0
  2  4  2  0
  2  5  1  0
  5  6  1  0
  6  7  2  0
  6  8  1  0
  8  9  1  0
  9 10  1  0
 10 11  2  0
 10 12  1  0
 12 13  1  0
 13 14  1  0
 14 15  1  0
 14 16  2  0
 13 17  2  0
 17 18  1  0
 18 19  2  0
 19 20  1  0
 20 21  2  0
 21 22  1  0
 21 23  1  0
 23 24  2  0
 24 12  1  0
 24 18  1  0
  1 25  1  0
  1 26  1  0
  1 27  1  0
  8 28  1  0
  8 29  1  0
 15 30  1  0
 15 31  1  0
 17 32  1  0
 19 33  1  0
 20 34  1  0
 22 35  1  0
 22 36  1  0
 23 37  1  0
M  CHG  1   5  -1
M  END
>  <UniqueID>  (28) 
27

>  <SMILES>  (28) 
CS(=O)(=O)[N-]C(=O)COC(=O)n1c(C(N)=O)cc2ccc(N)cc21

>  <Energy>  (28) 
69.66317586580365

>  <Genealogy>  (28) 
CS(=O)(=O)[N-]C(=O)COC(=O)n1c(C(N)=O)cc2ccc(N)cc21 (protonated)
CS(=O)(=O)[N-]C(=O)COC(=O)n1c(C(N)=O)cc2ccc(N)cc21 (3D coordinates assigned)
CS(=O)(=O)[N-]C(=O)COC(=O)n1c(C(N)=O)cc2ccc(N)cc21 (optimized conformer: 69.66317586580365 kcal/mol)

>  <smiles>  (28) 
CS(=O)(=O)NC(=O)COC(=O)n1c(C(N)=O)cc2ccc(N)cc21

>  <score_type>  (28) 
oracle

>  <origin>  (28) 
adg

>  <m_score__min__energy>  (28) 
-6.7400000000000002

>  <m_primary>  (28) 
energy

$$$$
29:0
     RDKit          3D

 43 44  0  0  0  0  0  0  0  0999 V2000
  144.3660  155.0720  135.2540 C   0  0  0  0  0  0  0  0  0  0  0  0
  145.8150  154.8850  135.3890 N   0  0  0  0  0  0  0  0  0  0  0  0
  146.3200  154.0040  136.4500 C   0  0  0  0  0  0  0  0  0  0  0  0
  146.7350  155.5580  134.4890 C   0  0  0  0  0  0  0  0  0  0  0  0
  147.7740  154.8330  133.8360 C   0  0  0  0  0  0  0  0  0  0  0  0
  148.6620  155.4720  132.9560 C   0  0  0  0  0  0  0  0  0  0  0  0
  148.5030  156.8360  132.7440 C   0  0  0  0  0  0  0  0  0  0  0  0
  149.2050  157.6930  131.9260 C   0  0  0  0  0  0  0  0  0  0  0  0
  148.6090  158.9380  132.0990 C   0  0  0  0  0  0  0  0  0  0  0  0
  149.1110  160.1750  131.4640 C   0  0  0  0  0  0  0  0  0  0  0  0
  148.2180  161.2180  131.0840 N   0  0  0  0  0  0  0  0  0  0  0  0
  150.3500  160.3330  131.2990 O   0  0  0  0  0  0  0  0  0  0  0  0
  147.5730  158.8550  132.9820 N   0  0  0  0  0  0  0  0  0  0  0  0
  146.6410  159.8840  133.3550 C   0  0  0  0  0  0  0  0  0  0  0  0
  147.0460  161.0580  133.5610 O   0  0  0  0  0  0  0  0  0  0  0  0
  145.2500  159.5770  133.5410 C   0  0  0  0  0  0  0  0  0  0  0  0
  144.0840  159.3080  133.6850 C   0  0  0  0  0  0  0  0  0  0  0  0
  142.3330  158.9100  133.9300 Si  0  0  0  0  0  4  0  0  0  0  0  0
  141.9870  157.1970  133.2750 C   0  0  0  0  0  0  0  0  0  0  0  0
  141.9420  158.9730  135.7540 C   0  0  0  0  0  0  0  0  0  0  0  0
  141.2780  160.1540  133.0210 C   0  0  0  0  0  0  0  0  0  0  0  0
  147.5250  157.5610  133.3690 C   0  0  0  0  0  0  0  0  0  0  0  0
  146.6140  156.9500  134.2380 C   0  0  0  0  0  0  0  0  0  0  0  0
  143.9092  155.1310  136.2530 H   0  0  0  0  0  0  0  0  0  0  0  0
  144.1662  156.0034  134.7039 H   0  0  0  0  0  0  0  0  0  0  0  0
  143.9362  154.2219  134.7039 H   0  0  0  0  0  0  0  0  0  0  0  0
  146.0735  154.4341  137.4320 H   0  0  0  0  0  0  0  0  0  0  0  0
  145.8532  153.0124  136.3563 H   0  0  0  0  0  0  0  0  0  0  0  0
  147.4116  153.9057  136.3563 H   0  0  0  0  0  0  0  0  0  0  0  0
  147.8820  153.7547  134.0247 H   0  0  0  0  0  0  0  0  0  0  0  0
  149.4600  154.9094  132.4493 H   0  0  0  0  0  0  0  0  0  0  0  0
  150.0560  157.4457  131.2744 H   0  0  0  0  0  0  0  0  0  0  0  0
  147.2270  161.2250  131.4150 H   0  0  0  0  0  0  0  0  0  0  0  0
  141.8470  156.5037  134.1174 H   0  0  0  0  0  0  0  0  0  0  0  0
  141.0747  157.2167  132.6607 H   0  0  0  0  0  0  0  0  0  0  0  0
  142.8354  156.8610  132.6607 H   0  0  0  0  0  0  0  0  0  0  0  0
  142.8658  158.8242  136.3324 H   0  0  0  0  0  0  0  0  0  0  0  0
  141.5078  159.9527  136.0023 H   0  0  0  0  0  0  0  0  0  0  0  0
  141.2220  158.1793  136.0023 H   0  0  0  0  0  0  0  0  0  0  0  0
  140.7443  160.7833  133.7484 H   0  0  0  0  0  0  0  0  0  0  0  0
  141.9191  160.7867  132.3895 H   0  0  0  0  0  0  0  0  0  0  0  0
  140.5491  159.6249  132.3895 H   0  0  0  0  0  0  0  0  0  0  0  0
  145.8180  157.5381  134.7182 H   0  0  0  0  0  0  0  0  0  0  0  0
  1  2  1  0
  2  3  1  0
  2  4  1  0
  4  5  2  0
  5  6  1  0
  6  7  2  0
  7  8  1  0
  8  9  2  0
  9 10  1  0
 10 11  1  0
 10 12  2  0
  9 13  1  0
 13 14  1  0
 14 15  2  0
 14 16  1  0
 16 17  3  0
 17 18  1  0
 18 19  1  0
 18 20  1  0
 18 21  1  0
 13 22  1  0
 22 23  2  0
 23  4  1  0
 22  7  1  0
  1 24  1  0
  1 25  1  0
  1 26  1  0
  3 27  1  0
  3 28  1  0
  3 29  1  0
  5 30  1  0
  6 31  1  0
  8 32  1  0
 11 33  1  0
 19 34  1  0
 19 35  1  0
 19 36  1  0
 20 37  1  0
 20 38  1  0
 20 39  1  0
 21 40  1  0
 21 41  1  0
 21 42  1  0
 23 43  1  0
M  CHG  1  11  -1
M  END
>  <UniqueID>  (29) 
28

>  <SMILES>  (29) 
CN(C)c1ccc2cc(C([NH-])=O)n(C(=O)C#C[Si](C)(C)C)c2c1

>  <Energy>  (29) 
67.17536936806239

>  <Genealogy>  (29) 
CN(C)c1ccc2cc(C([NH-])=O)n(C(=O)C#C[Si](C)(C)C)c2c1 (protonated)
CN(C)c1ccc2cc(C([NH-])=O)n(C(=O)C#C[Si](C)(C)C)c2c1 (3D coordinates assigned)
CN(C)c1ccc2cc(C([NH-])=O)n(C(=O)C#C[Si](C)(C)C)c2c1 (optimized conformer: 67.17536936806239 kcal/mol)

>  <smiles>  (29) 
CN(C)c1ccc2cc(C(N)=O)n(C(=O)C#C[Si](C)(C)C)c2c1

>  <score_type>  (29) 
oracle

>  <origin>  (29) 
adg

>  <m_score__min__energy>  (29) 
-7.2599999999999998

>  <m_primary>  (29) 
energy

$$$$
31:0
     RDKit          3D

 38 39  0  0  0  0  0  0  0  0999 V2000
  140.8480  160.0970  133.9640 N   0  0  0  0  0  0  0  0  0  0  0  0
  141.9020  159.2680  134.4500 C   0  0  0  0  0  0  0  0  0  0  0  0
  143.0000  159.2410  133.8330 O   0  0  0  0  0  0  0  0  0  0  0  0
  141.7380  158.4800  135.6890 C   0  0  0  0  0  0  0  0  0  0  0  0
  141.9780  158.9920  136.9630 C   0  0  0  0  0  0  0  0  0  0  0  0
  141.6540  157.9750  137.8320 C   0  0  0  0  0  0  0  0  0  0  0  0
  141.7280  157.9240  139.2210 C   0  0  0  0  0  0  0  0  0  0  0  0
  141.3790  156.7180  139.8550 C   0  0  0  0  0  0  0  0  0  0  0  0
  140.9760  155.5920  139.0940 C   0  0  0  0  0  0  0  0  0  0  0  0
  140.6160  154.3090  139.7870 C   0  0  0  0  0  0  0  0  0  0  0  0
  140.0730  153.4230  138.8720 F   0  0  0  0  0  0  0  0  0  0  0  0
  139.6910  154.5580  140.7870 F   0  0  0  0  0  0  0  0  0  0  0  0
  140.9030  155.6870  137.6870 C   0  0  0  0  0  0  0  0  0  0  0  0
  141.2400  156.9030  137.0860 C   0  0  0  0  0  0  0  0  0  0  0  0
  141.2830  157.1980  135.7690 N   0  0  0  0  0  0  0  0  0  0  0  0
  141.0050  156.2880  134.6980 C   0  0  0  0  0  0  0  0  0  0  0  0
  141.9190  155.5420  134.2570 O   0  0  0  0  0  0  0  0  0  0  0  0
  139.7110  156.2790  134.0840 N   0  0  0  0  0  0  0  0  0  0  0  0
  139.4970  156.5640  132.6710 C   0  0  0  0  0  0  0  0  0  0  0  0
  139.1690  158.0120  132.4900 C   0  0  0  0  0  0  0  0  0  0  0  0
  138.4090  158.5940  133.3100 O   0  0  0  0  0  0  0  0  0  0  0  0
  139.6940  158.7160  131.3580 N   0  0  0  0  0  0  0  0  0  0  0  0
  138.8570  159.3270  130.3310 C   0  0  0  0  0  0  0  0  0  0  0  0
  138.4440  160.7360  130.7530 C   0  0  0  0  0  0  0  0  0  0  0  0
  139.1760  161.1240  131.8810 O   0  0  0  0  0  0  0  0  0  0  0  0
  140.2270  159.7770  133.1890 H   0  0  0  0  0  0  0  0  0  0  0  0
  142.3478  159.9957  137.2195 H   0  0  0  0  0  0  0  0  0  0  0  0
  142.0493  158.7994  139.8045 H   0  0  0  0  0  0  0  0  0  0  0  0
  141.4192  156.6479  140.9520 H   0  0  0  0  0  0  0  0  0  0  0  0
  141.5237  153.8730  140.2297 H   0  0  0  0  0  0  0  0  0  0  0  0
  140.5888  154.8256  137.0793 H   0  0  0  0  0  0  0  0  0  0  0  0
  140.4105  156.3233  132.1075 H   0  0  0  0  0  0  0  0  0  0  0  0
  138.6608  155.9532  132.3000 H   0  0  0  0  0  0  0  0  0  0  0  0
  139.4209  159.3812  129.3881 H   0  0  0  0  0  0  0  0  0  0  0  0
  137.9533  158.7148  130.1948 H   0  0  0  0  0  0  0  0  0  0  0  0
  138.6425  161.4374  129.9292 H   0  0  0  0  0  0  0  0  0  0  0  0
  137.3709  160.7442  130.9945 H   0  0  0  0  0  0  0  0  0  0  0  0
  139.4120  160.2860  132.3580 H   0  0  0  0  0  0  0  0  0  0  0  0
  1  2  1  0
  2  3  2  0
  2  4  1  0
  4  5  2  0
  5  6  1  0
  6  7  2  0
  7  8  1  0
  8  9  2  0
  9 10  1  0
 10 11  1  0
 10 12  1  0
  9 13  1  0
 13 14  2  0
 14 15  1  0
 15 16  1  0
 16 17  2  0
 16 18  1  0
 18 19  1  0
 19 20  1  0
 20 21  2  0
 20 22  1  0
 22 23  1  0
 23 24  1  0
 24 25  1  0
 15  4  1  0
 14  6  1  0
  1 26  1  0
  5 27  1  0
  7 28  1  0
  8 29  1  0
 10 30  1  0
 13 31  1  0
 19 32  1  0
 19 33  1  0
 23 34  1  0
 23 35  1  0
 24 36  1  0
 24 37  1  0
 25 38  1  0
M  CHG  3   1  -1  18  -1  22  -1
M  END
>  <UniqueID>  (30) 
29

>  <SMILES>  (30) 
[NH-]C(=O)c1cc2ccc(C(F)F)cc2n1C(=O)[N-]CC(=O)[N-]CCO

>  <Energy>  (30) 
68.23319069328544

>  <Genealogy>  (30) 
[NH-]C(=O)c1cc2ccc(C(F)F)cc2n1C(=O)[N-]CC(=O)[N-]CCO (protonated)
[NH-]C(=O)c1cc2ccc(C(F)F)cc2n1C(=O)[N-]CC(=O)[N-]CCO (3D coordinates assigned)
[NH-]C(=O)c1cc2ccc(C(F)F)cc2n1C(=O)[N-]CC(=O)[N-]CCO (optimized conformer: 68.23319069328544 kcal/mol)

>  <smiles>  (30) 
NC(=O)c1cc2ccc(C(F)F)cc2n1C(=O)NCC(=O)NCCO

>  <score_type>  (30) 
oracle

>  <origin>  (30) 
adg

>  <m_score__min__energy>  (30) 
-5.4699999999999998

>  <m_primary>  (30) 
energy

$$$$
32:0
     RDKit          3D

 43 44  0  0  0  0  0  0  0  0999 V2000
  139.3700  159.4840  131.5030 C   0  0  0  0  0  0  0  0  0  0  0  0
  139.5070  158.9420  132.9460 C   0  0  1  0  0  0  0  0  0  0  0  0
  139.0850  157.4510  132.9420 C   0  0  0  0  0  0  0  0  0  0  0  0
  140.2130  156.5880  132.7860 O   0  0  0  0  0  0  0  0  0  0  0  0
  140.1770  155.2040  132.9890 C   0  0  0  0  0  0  0  0  0  0  0  0
  139.0710  154.6010  132.9820 O   0  0  0  0  0  0  0  0  0  0  0  0
  141.4040  154.4650  133.1540 N   0  0  0  0  0  0  0  0  0  0  0  0
  142.6540  154.9740  133.3500 C   0  0  0  0  0  0  0  0  0  0  0  0
  142.9860  156.3920  133.5550 C   0  0  0  0  0  0  0  0  0  0  0  0
  142.6050  157.3740  132.5930 N   0  0  0  0  0  0  0  0  0  0  0  0
  143.5500  156.7490  134.6240 O   0  0  0  0  0  0  0  0  0  0  0  0
  143.6160  153.9720  133.3030 C   0  0  0  0  0  0  0  0  0  0  0  0
  142.9150  152.8080  133.0980 C   0  0  0  0  0  0  0  0  0  0  0  0
  143.3760  151.5000  132.9840 C   0  0  0  0  0  0  0  0  0  0  0  0
  142.4280  150.4830  132.7870 C   0  0  0  0  0  0  0  0  0  0  0  0
  141.0470  150.7870  132.7280 C   0  0  0  0  0  0  0  0  0  0  0  0
  140.0460  149.6930  132.4970 C   0  0  0  0  0  0  0  0  0  0  0  0
  140.6580  148.4660  132.6670 F   0  0  0  0  0  0  0  0  0  0  0  0
  140.6150  152.1270  132.8330 C   0  0  0  0  0  0  0  0  0  0  0  0
  141.5820  153.1280  133.0130 C   0  0  0  0  0  0  0  0  0  0  0  0
  140.8810  159.1060  133.5130 N   0  0  0  0  0  0  0  0  0  0  0  0
  140.8960  158.7790  134.9540 C   0  0  0  0  0  0  0  0  0  0  0  0
  141.4170  160.4740  133.3520 C   0  0  0  0  0  0  0  0  0  0  0  0
  139.1005  160.5500  131.5358 H   0  0  0  0  0  0  0  0  0  0  0  0
  140.3268  159.3637  130.9738 H   0  0  0  0  0  0  0  0  0  0  0  0
  138.5853  158.9235  130.9738 H   0  0  0  0  0  0  0  0  0  0  0  0
  138.8500  159.5335  133.6006 H   0  0  0  0  0  0  0  0  0  0  0  0
  138.5859  157.2182  133.8942 H   0  0  0  0  0  0  0  0  0  0  0  0
  138.4050  157.2870  132.0931 H   0  0  0  0  0  0  0  0  0  0  0  0
  142.0370  157.1080  131.7590 H   0  0  0  0  0  0  0  0  0  0  0  0
  142.8550  158.3780  132.7370 H   0  0  0  0  0  0  0  0  0  0  0  0
  144.7050  154.0862  133.4075 H   0  0  0  0  0  0  0  0  0  0  0  0
  144.4499  151.2698  133.0463 H   0  0  0  0  0  0  0  0  0  0  0  0
  142.7617  149.4406  132.6776 H   0  0  0  0  0  0  0  0  0  0  0  0
  139.2200  149.7937  133.2165 H   0  0  0  0  0  0  0  0  0  0  0  0
  139.6511  149.7673  131.4730 H   0  0  0  0  0  0  0  0  0  0  0  0
  139.5461  152.3803  132.7751 H   0  0  0  0  0  0  0  0  0  0  0  0
  140.8534  159.7081  135.5413 H   0  0  0  0  0  0  0  0  0  0  0  0
  140.0257  158.1516  135.1967 H   0  0  0  0  0  0  0  0  0  0  0  0
  141.8201  158.2339  135.1967 H   0  0  0  0  0  0  0  0  0  0  0  0
  141.5912  160.9185  134.3430 H   0  0  0  0  0  0  0  0  0  0  0  0
  142.3656  160.4331  132.7966 H   0  0  0  0  0  0  0  0  0  0  0  0
  140.6931  161.0884  132.7966 H   0  0  0  0  0  0  0  0  0  0  0  0
  1  2  1  0
  2  3  1  0
  3  4  1  0
  4  5  1  0
  5  6  2  0
  5  7  1  0
  7  8  1  0
  8  9  1  0
  9 10  1  0
  9 11  2  0
  8 12  2  0
 12 13  1  0
 13 14  2  0
 14 15  1  0
 15 16  2  0
 16 17  1  0
 17 18  1  0
 16 19  1  0
 19 20  2  0
  2 21  1  0
 21 22  1  0
 21 23  1  0
 20  7  1  0
 20 13  1  0
  1 24  1  0
  1 25  1  0
  1 26  1  0
  2 27  1  1
  3 28  1  0
  3 29  1  0
 10 30  1  0
 10 31  1  0
 12 32  1  0
 14 33  1  0
 15 34  1  0
 17 35  1  0
 17 36  1  0
 19 37  1  0
 22 38  1  0
 22 39  1  0
 22 40  1  0
 23 41  1  0
 23 42  1  0
 23 43  1  0
M  END
>  <UniqueID>  (31) 
30

>  <SMILES>  (31) 
C[C@@H](COC(=O)n1c(C(N)=O)cc2ccc(CF)cc21)N(C)C

>  <Energy>  (31) 
86.22739782578161

>  <Genealogy>  (31) 
C[C@@H](COC(=O)n1c(C(N)=O)cc2ccc(CF)cc21)N(C)C (chirality)
C[C@@H](COC(=O)n1c(C(N)=O)cc2ccc(CF)cc21)N(C)C (3D coordinates assigned)
C[C@@H](COC(=O)n1c(C(N)=O)cc2ccc(CF)cc21)N(C)C (optimized conformer: 86.22739782578161 kcal/mol)

>  <smiles>  (31) 
CC(COC(=O)n1c(C(N)=O)cc2ccc(CF)cc21)N(C)C

>  <score_type>  (31) 
oracle

>  <origin>  (31) 
adg

>  <m_score__min__energy>  (31) 
-6.6399999999999997

>  <m_primary>  (31) 
energy

$$$$
33:0
     RDKit          3D

 36 37  0  0  0  0  0  0  0  0999 V2000
  149.6150  160.4920  129.1610 C   0  0  0  0  0  0  0  0  0  0  0  0
  149.5450  159.5340  130.2100 O   0  0  0  0  0  0  0  0  0  0  0  0
  149.2080  159.8770  131.5230 C   0  0  0  0  0  0  0  0  0  0  0  0
  148.8330  161.0470  131.8070 O   0  0  0  0  0  0  0  0  0  0  0  0
  149.2960  158.8430  132.6000 C   0  0  0  0  0  0  0  0  0  0  0  0
  147.9190  158.4020  133.0120 C   0  0  0  0  0  0  0  0  0  0  0  0
  146.7900  159.2060  132.7080 C   0  0  0  0  0  0  0  0  0  0  0  0
  145.4990  158.7970  133.0820 C   0  0  0  0  0  0  0  0  0  0  0  0
  145.3660  157.5790  133.7430 C   0  0  0  0  0  0  0  0  0  0  0  0
  144.2420  156.9500  134.2330 C   0  0  0  0  0  0  0  0  0  0  0  0
  144.7010  155.7580  134.7930 C   0  0  0  0  0  0  0  0  0  0  0  0
  143.8150  154.7330  135.3790 C   0  0  0  0  0  0  0  0  0  0  0  0
  144.1640  153.3520  135.3360 N   0  0  0  0  0  0  0  0  0  0  0  0
  142.7230  155.0770  135.9020 O   0  0  0  0  0  0  0  0  0  0  0  0
  146.0520  155.6600  134.6600 N   0  0  0  0  0  0  0  0  0  0  0  0
  146.9190  154.6330  135.1580 C   0  0  0  0  0  0  0  0  0  0  0  0
  146.9840  153.5250  134.5580 O   0  0  0  0  0  0  0  0  0  0  0  0
  147.8380  154.9060  136.3090 C   0  0  0  0  0  0  0  0  0  0  0  0
  147.7170  153.5630  137.5250 P   0  0  0  0  0  0  0  0  0  0  0  0
  146.6050  152.6210  137.1260 O   0  0  0  0  0  0  0  0  0  0  0  0
  147.3850  154.2050  139.0540 O   0  0  0  0  0  0  0  0  0  0  0  0
  149.1790  152.7130  137.5760 O   0  0  0  0  0  0  0  0  0  0  0  0
  146.4440  156.7790  134.0150 C   0  0  0  0  0  0  0  0  0  0  0  0
  147.7430  157.1650  133.6710 C   0  0  0  0  0  0  0  0  0  0  0  0
  149.6888  161.5018  129.5910 H   0  0  0  0  0  0  0  0  0  0  0  0
  150.5009  160.2921  128.5404 H   0  0  0  0  0  0  0  0  0  0  0  0
  148.7094  160.4230  128.5404 H   0  0  0  0  0  0  0  0  0  0  0  0
  149.8582  157.9751  132.2250 H   0  0  0  0  0  0  0  0  0  0  0  0
  149.8093  159.2759  133.4713 H   0  0  0  0  0  0  0  0  0  0  0  0
  146.9268  160.1582  132.1746 H   0  0  0  0  0  0  0  0  0  0  0  0
  144.6202  159.4201  132.8594 H   0  0  0  0  0  0  0  0  0  0  0  0
  143.2038  157.3112  134.1913 H   0  0  0  0  0  0  0  0  0  0  0  0
  145.1300  153.0340  135.5750 H   0  0  0  0  0  0  0  0  0  0  0  0
  148.8727  154.9741  135.9419 H   0  0  0  0  0  0  0  0  0  0  0  0
  147.5506  155.8547  136.7860 H   0  0  0  0  0  0  0  0  0  0  0  0
  148.6044  156.5230  133.9071 H   0  0  0  0  0  0  0  0  0  0  0  0
  1  2  1  0
  2  3  1  0
  3  4  2  0
  3  5  1  0
  5  6  1  0
  6  7  2  0
  7  8  1  0
  8  9  2  0
  9 10  1  0
 10 11  2  0
 11 12  1  0
 12 13  1  0
 12 14  2  0
 11 15  1  0
 15 16  1  0
 16 17  2  0
 16 18  1  0
 18 19  1  0
 19 20  2  0
 19 21  1  0
 19 22  1  0
 15 23  1  0
 23 24  2  0
 24  6  1  0
 23  9  1  0
  1 25  1  0
  1 26  1  0
  1 27  1  0
  5 28  1  0
  5 29  1  0
  7 30  1  0
  8 31  1  0
 10 32  1  0
 13 33  1  0
 18 34  1  0
 18 35  1  0
 24 36  1  0
M  CHG  3  13  -1  21  -1  22  -1
M  END
>  <UniqueID>  (32) 
31

>  <SMILES>  (32) 
COC(=O)Cc1ccc2cc(C([NH-])=O)n(C(=O)CP(=O)([O-])[O-])c2c1

>  <Energy>  (32) 
66.43391920446425

>  <Genealogy>  (32) 
COC(=O)Cc1ccc2cc(C([NH-])=O)n(C(=O)CP(=O)([O-])[O-])c2c1 (protonated)
COC(=O)Cc1ccc2cc(C([NH-])=O)n(C(=O)CP(=O)([O-])[O-])c2c1 (3D coordinates assigned)
COC(=O)Cc1ccc2cc(C([NH-])=O)n(C(=O)CP(=O)([O-])[O-])c2c1 (optimized conformer: 66.43391920446425 kcal/mol)

>  <smiles>  (32) 
COC(=O)Cc1ccc2cc(C(N)=O)n(C(=O)CP(=O)(O)O)c2c1

>  <score_type>  (32) 
oracle

>  <origin>  (32) 
adg

>  <m_score__min__energy>  (32) 
-6.5

>  <m_primary>  (32) 
energy

$$$$
34:0
     RDKit          3D

 39 40  0  0  0  0  0  0  0  0999 V2000
  149.1610  154.6570  132.5950 C   0  0  0  0  0  0  0  0  0  0  0  0
  147.6690  154.9600  132.6750 C   0  0  0  0  0  0  0  0  0  0  0  0
  147.4360  156.4290  132.9050 C   0  0  0  0  0  0  0  0  0  0  0  0
  148.5260  157.3340  132.8700 C   0  0  0  0  0  0  0  0  0  0  0  0
  148.3190  158.7110  133.0630 C   0  0  0  0  0  0  0  0  0  0  0  0
  147.0150  159.1510  133.2710 C   0  0  0  0  0  0  0  0  0  0  0  0
  146.5330  160.4210  133.4970 C   0  0  0  0  0  0  0  0  0  0  0  0
  145.1540  160.2750  133.6310 C   0  0  0  0  0  0  0  0  0  0  0  0
  144.2260  161.4150  133.7890 C   0  0  0  0  0  0  0  0  0  0  0  0
  142.8150  161.2250  133.7320 N   0  0  0  0  0  0  0  0  0  0  0  0
  144.6870  162.5790  133.9300 O   0  0  0  0  0  0  0  0  0  0  0  0
  144.7980  158.9660  133.5030 N   0  0  0  0  0  0  0  0  0  0  0  0
  143.4920  158.3900  133.6430 C   0  0  0  0  0  0  0  0  0  0  0  0
  142.9570  157.8010  132.6640 O   0  0  0  0  0  0  0  0  0  0  0  0
  142.8140  158.4960  134.8610 O   0  0  0  0  0  0  0  0  0  0  0  0
  141.6120  157.7830  135.1430 C   0  0  0  0  0  0  0  0  0  0  0  0
  140.4760  158.6030  134.8750 O   0  0  0  0  0  0  0  0  0  0  0  0
  139.5620  158.3230  133.8560 C   0  0  0  0  0  0  0  0  0  0  0  0
  138.4250  157.8450  134.1220 O   0  0  0  0  0  0  0  0  0  0  0  0
  139.9220  158.6340  132.4400 C   0  0  0  0  0  0  0  0  0  0  0  0
  141.0600  159.5440  132.4050 N   0  0  0  0  0  0  0  0  0  0  0  0
  145.9470  158.2920  133.2780 C   0  0  0  0  0  0  0  0  0  0  0  0
  146.1250  156.9140  133.1060 C   0  0  0  0  0  0  0  0  0  0  0  0
  149.5732  154.5733  133.6114 H   0  0  0  0  0  0  0  0  0  0  0  0
  149.3144  153.7094  132.0579 H   0  0  0  0  0  0  0  0  0  0  0  0
  149.6719  155.4697  132.0579 H   0  0  0  0  0  0  0  0  0  0  0  0
  147.1889  154.6617  131.7314 H   0  0  0  0  0  0  0  0  0  0  0  0
  147.2386  154.3977  133.5167 H   0  0  0  0  0  0  0  0  0  0  0  0
  149.5431  156.9556  132.6902 H   0  0  0  0  0  0  0  0  0  0  0  0
  149.1612  159.4185  133.0501 H   0  0  0  0  0  0  0  0  0  0  0  0
  147.1137  161.3532  133.5586 H   0  0  0  0  0  0  0  0  0  0  0  0
  142.3860  160.2990  133.9550 H   0  0  0  0  0  0  0  0  0  0  0  0
  141.5672  156.8832  134.5119 H   0  0  0  0  0  0  0  0  0  0  0  0
  141.6055  157.4984  136.2055 H   0  0  0  0  0  0  0  0  0  0  0  0
  140.1841  157.7022  131.9174 H   0  0  0  0  0  0  0  0  0  0  0  0
  139.0629  159.1098  131.9444 H   0  0  0  0  0  0  0  0  0  0  0  0
  141.6940  159.2290  131.6340 H   0  0  0  0  0  0  0  0  0  0  0  0
  141.5970  159.4290  133.2960 H   0  0  0  0  0  0  0  0  0  0  0  0
  145.2661  156.2271  133.1269 H   0  0  0  0  0  0  0  0  0  0  0  0
  1  2  1  0
  2  3  1  0
  3  4  2  0
  4  5  1  0
  5  6  2  0
  6  7  1  0
  7  8  2  0
  8  9  1  0
  9 10  1  0
  9 11  2  0
  8 12  1  0
 12 13  1  0
 13 14  2  0
 13 15  1  0
 15 16  1  0
 16 17  1  0
 17 18  1  0
 18 19  2  0
 18 20  1  0
 20 21  1  0
 12 22  1  0
 22 23  2  0
 23  3  1  0
 22  6  1  0
  1 24  1  0
  1 25  1  0
  1 26  1  0
  2 27  1  0
  2 28  1  0
  4 29  1  0
  5 30  1  0
  7 31  1  0
 10 32  1  0
 16 33  1  0
 16 34  1  0
 20 35  1  0
 20 36  1  0
 21 37  1  0
 21 38  1  0
 23 39  1  0
M  CHG  1  10  -1
M  END
>  <UniqueID>  (33) 
32

>  <SMILES>  (33) 
CCc1ccc2cc(C([NH-])=O)n(C(=O)OCOC(=O)CN)c2c1

>  <Energy>  (33) 
68.44369445370627

>  <Genealogy>  (33) 
CCc1ccc2cc(C([NH-])=O)n(C(=O)OCOC(=O)CN)c2c1 (protonated)
CCc1ccc2cc(C([NH-])=O)n(C(=O)OCOC(=O)CN)c2c1 (3D coordinates assigned)
CCc1ccc2cc(C([NH-])=O)n(C(=O)OCOC(=O)CN)c2c1 (optimized conformer: 68.44369445370627 kcal/mol)

>  <smiles>  (33) 
CCc1ccc2cc(C(N)=O)n(C(=O)OCOC(=O)CN)c2c1

>  <score_type>  (33) 
oracle

>  <origin>  (33) 
adg

>  <m_score__min__energy>  (33) 
-5.6900000000000004

>  <m_primary>  (33) 
energy

$$$$
36:0
     RDKit          3D

 45 46  0  0  0  0  0  0  0  0999 V2000
  140.3050  158.9850  131.4160 C   0  0  0  0  0  0  0  0  0  0  0  0
  141.1000  158.8980  132.6340 N   0  0  0  0  0  0  0  0  0  0  0  0
  140.6460  158.1550  133.7760 C   0  0  0  0  0  0  0  0  0  0  0  0
  139.5130  157.6030  133.7540 O   0  0  0  0  0  0  0  0  0  0  0  0
  141.4950  158.0430  135.0230 C   0  0  1  0  0  0  0  0  0  0  0  0
  142.8190  158.6300  134.8090 N   0  0  0  0  0  0  0  0  0  0  0  0
  143.7290  158.2220  133.7810 C   0  0  0  0  0  0  0  0  0  0  0  0
  143.4460  157.2250  133.0680 O   0  0  0  0  0  0  0  0  0  0  0  0
  144.9680  158.9120  133.5750 N   0  0  0  0  0  0  0  0  0  0  0  0
  145.1940  160.2550  133.5870 C   0  0  0  0  0  0  0  0  0  0  0  0
  144.1650  161.3030  133.7600 C   0  0  0  0  0  0  0  0  0  0  0  0
  142.7770  160.9820  133.7310 N   0  0  0  0  0  0  0  0  0  0  0  0
  144.5170  162.5020  133.9220 O   0  0  0  0  0  0  0  0  0  0  0  0
  146.5480  160.5180  133.3850 C   0  0  0  0  0  0  0  0  0  0  0  0
  147.1430  159.2840  133.2400 C   0  0  0  0  0  0  0  0  0  0  0  0
  148.4760  158.9470  133.0350 C   0  0  0  0  0  0  0  0  0  0  0  0
  148.8050  157.5830  132.9440 C   0  0  0  0  0  0  0  0  0  0  0  0
  147.8020  156.5840  133.0480 C   0  0  0  0  0  0  0  0  0  0  0  0
  148.1910  155.1290  132.9850 C   0  0  0  0  0  0  0  0  0  0  0  0
  147.2060  154.4200  132.3240 F   0  0  0  0  0  0  0  0  0  0  0  0
  149.3910  154.9580  132.3180 F   0  0  0  0  0  0  0  0  0  0  0  0
  148.3290  154.6240  134.2660 F   0  0  0  0  0  0  0  0  0  0  0  0
  146.4580  156.9690  133.2690 C   0  0  0  0  0  0  0  0  0  0  0  0
  146.1640  158.3330  133.3550 C   0  0  0  0  0  0  0  0  0  0  0  0
  140.8030  158.6840  136.2660 C   0  0  0  0  0  0  0  0  0  0  0  0
  139.3270  158.2350  136.3400 C   0  0  0  0  0  0  0  0  0  0  0  0
  141.5080  158.2830  137.5760 C   0  0  0  0  0  0  0  0  0  0  0  0
  140.8480  160.0900  136.1690 O   0  0  0  0  0  0  0  0  0  0  0  0
  139.2432  159.1012  131.6787 H   0  0  0  0  0  0  0  0  0  0  0  0
  140.6335  159.8526  130.8249 H   0  0  0  0  0  0  0  0  0  0  0  0
  140.4381  158.0669  130.8249 H   0  0  0  0  0  0  0  0  0  0  0  0
  142.0300  159.3730  132.6570 H   0  0  0  0  0  0  0  0  0  0  0  0
  141.6165  156.9702  135.2336 H   0  0  0  0  0  0  0  0  0  0  0  0
  142.2690  160.7050  134.6000 H   0  0  0  0  0  0  0  0  0  0  0  0
  147.0376  161.5024  133.3490 H   0  0  0  0  0  0  0  0  0  0  0  0
  149.2498  159.7238  132.9467 H   0  0  0  0  0  0  0  0  0  0  0  0
  149.8530  157.2863  132.7902 H   0  0  0  0  0  0  0  0  0  0  0  0
  145.6647  156.2138  133.3705 H   0  0  0  0  0  0  0  0  0  0  0  0
  139.0241  158.1429  137.3935 H   0  0  0  0  0  0  0  0  0  0  0  0
  138.6914  158.9804  135.8396 H   0  0  0  0  0  0  0  0  0  0  0  0
  139.2142  157.2619  135.8396 H   0  0  0  0  0  0  0  0  0  0  0  0
  140.9093  158.6235  138.4337 H   0  0  0  0  0  0  0  0  0  0  0  0
  141.6149  157.1889  137.6148 H   0  0  0  0  0  0  0  0  0  0  0  0
  142.5031  158.7503  137.6148 H   0  0  0  0  0  0  0  0  0  0  0  0
  141.5470  160.3300  135.5060 H   0  0  0  0  0  0  0  0  0  0  0  0
  1  2  1  0
  2  3  1  0
  3  4  2  0
  3  5  1  0
  5  6  1  0
  6  7  1  0
  7  8  2  0
  7  9  1  0
  9 10  1  0
 10 11  1  0
 11 12  1  0
 11 13  2  0
 10 14  2  0
 14 15  1  0
 15 16  2  0
 16 17  1  0
 17 18  2  0
 18 19  1  0
 19 20  1  0
 19 21  1  0
 19 22  1  0
 18 23  1  0
 23 24  2  0
  5 25  1  0
 25 26  1  0
 25 27  1  0
 25 28  1  0
 24  9  1  0
 24 15  1  0
  1 29  1  0
  1 30  1  0
  1 31  1  0
  2 32  1  0
  5 33  1  1
 12 34  1  0
 14 35  1  0
 16 36  1  0
 17 37  1  0
 23 38  1  0
 26 39  1  0
 26 40  1  0
 26 41  1  0
 27 42  1  0
 27 43  1  0
 27 44  1  0
 28 45  1  0
M  CHG  2   6  -1  12  -1
M  END
>  <UniqueID>  (34) 
33

>  <SMILES>  (34) 
CNC(=O)[C@@H]([N-]C(=O)n1c(C([NH-])=O)cc2ccc(C(F)(F)F)cc21)C(C)(C)O

>  <Energy>  (34) 
75.29223301920796

>  <Genealogy>  (34) 
CNC(=O)[C@@H]([N-]C(=O)n1c(C([NH-])=O)cc2ccc(C(F)(F)F)cc21)C(C)(C)O (protonated)
CNC(=O)[C@@H]([N-]C(=O)n1c(C([NH-])=O)cc2ccc(C(F)(F)F)cc21)C(C)(C)O (3D coordinates assigned)
CNC(=O)[C@@H]([N-]C(=O)n1c(C([NH-])=O)cc2ccc(C(F)(F)F)cc21)C(C)(C)O (optimized conformer: 75.29223301920796 kcal/mol)

>  <smiles>  (34) 
CNC(=O)[C@@H](NC(=O)n1c(C(N)=O)cc2ccc(C(F)(F)F)cc21)C(C)(C)O

>  <score_type>  (34) 
oracle

>  <origin>  (34) 
adg

>  <m_score__min__energy>  (34) 
-6.8600000000000003

>  <m_primary>  (34) 
energy

$$$$
37:0
     RDKit          3D

 37 38  0  0  0  0  0  0  0  0999 V2000
  149.9850  160.1790  129.1740 C   0  0  0  0  0  0  0  0  0  0  0  0
  149.2140  160.2320  130.4290 N   0  0  0  0  0  0  0  0  0  0  0  0
  148.8800  161.6330  130.7380 C   0  0  0  0  0  0  0  0  0  0  0  0
  149.9690  159.6360  131.5550 C   0  0  0  0  0  0  0  0  0  0  0  0
  149.4480  158.2330  131.9140 C   0  0  0  0  0  0  0  0  0  0  0  0
  148.7640  158.2150  133.2110 N   0  0  0  0  0  0  0  0  0  0  0  0
  147.3300  158.2040  133.3460 C   0  0  0  0  0  0  0  0  0  0  0  0
  146.6400  156.9690  133.2470 C   0  0  0  0  0  0  0  0  0  0  0  0
  145.2410  156.9130  133.3600 C   0  0  0  0  0  0  0  0  0  0  0  0
  144.5570  158.1040  133.5820 C   0  0  0  0  0  0  0  0  0  0  0  0
  143.2070  158.3370  133.7050 C   0  0  0  0  0  0  0  0  0  0  0  0
  143.0860  159.7100  133.9040 C   0  0  0  0  0  0  0  0  0  0  0  0
  141.7970  160.3810  134.1720 C   0  0  0  0  0  0  0  0  0  0  0  0
  141.0200  160.0450  135.3190 N   0  0  0  0  0  0  0  0  0  0  0  0
  141.3500  161.2250  133.3500 O   0  0  0  0  0  0  0  0  0  0  0  0
  144.3130  160.3040  133.8960 N   0  0  0  0  0  0  0  0  0  0  0  0
  144.6080  161.7080  133.9740 C   0  0  0  0  0  0  0  0  0  0  0  0
  143.8810  162.5450  133.3780 O   0  0  0  0  0  0  0  0  0  0  0  0
  145.6840  162.1580  134.7300 O   0  0  0  0  0  0  0  0  0  0  0  0
  145.2030  159.3060  133.7000 C   0  0  0  0  0  0  0  0  0  0  0  0
  146.5950  159.3940  133.5720 C   0  0  0  0  0  0  0  0  0  0  0  0
  151.0578  160.1053  129.4056 H   0  0  0  0  0  0  0  0  0  0  0  0
  149.6747  159.3001  128.5899 H   0  0  0  0  0  0  0  0  0  0  0  0
  149.7979  161.0921  128.5899 H   0  0  0  0  0  0  0  0  0  0  0  0
  148.8473  161.7701  131.8289 H   0  0  0  0  0  0  0  0  0  0  0  0
  149.6453  162.2958  130.3079 H   0  0  0  0  0  0  0  0  0  0  0  0
  147.8980  161.8793  130.3079 H   0  0  0  0  0  0  0  0  0  0  0  0
  151.0293  159.5604  131.2722 H   0  0  0  0  0  0  0  0  0  0  0  0
  149.8394  160.2840  132.4343 H   0  0  0  0  0  0  0  0  0  0  0  0
  148.7422  157.9067  131.1360 H   0  0  0  0  0  0  0  0  0  0  0  0
  150.3126  157.5559  131.9770 H   0  0  0  0  0  0  0  0  0  0  0  0
  149.3340  158.2190  134.0870 H   0  0  0  0  0  0  0  0  0  0  0  0
  147.2082  156.0421  133.0794 H   0  0  0  0  0  0  0  0  0  0  0  0
  144.7030  155.9573  133.2756 H   0  0  0  0  0  0  0  0  0  0  0  0
  142.3953  157.5962  133.6565 H   0  0  0  0  0  0  0  0  0  0  0  0
  140.6750  160.7860  135.9690 H   0  0  0  0  0  0  0  0  0  0  0  0
  147.1061  160.3653  133.6453 H   0  0  0  0  0  0  0  0  0  0  0  0
  1  2  1  0
  2  3  1  0
  2  4  1  0
  4  5  1  0
  5  6  1  0
  6  7  1  0
  7  8  2  0
  8  9  1  0
  9 10  2  0
 10 11  1  0
 11 12  2  0
 12 13  1  0
 13 14  1  0
 13 15  2  0
 12 16  1  0
 16 17  1  0
 17 18  2  0
 17 19  1  0
 16 20  1  0
 20 21  2  0
 21  7  1  0
 20 10  1  0
  1 22  1  0
  1 23  1  0
  1 24  1  0
  3 25  1  0
  3 26  1  0
  3 27  1  0
  4 28  1  0
  4 29  1  0
  5 30  1  0
  5 31  1  0
  6 32  1  0
  8 33  1  0
  9 34  1  0
 11 35  1  0
 14 36  1  0
 21 37  1  0
M  CHG  2  14  -1  19  -1
M  END
>  <UniqueID>  (35) 
34

>  <SMILES>  (35) 
CN(C)CCNc1ccc2cc(C([NH-])=O)n(C(=O)[O-])c2c1

>  <Energy>  (35) 
76.8106640402128

>  <Genealogy>  (35) 
CN(C)CCNc1ccc2cc(C([NH-])=O)n(C(=O)[O-])c2c1 (protonated)
CN(C)CCNc1ccc2cc(C([NH-])=O)n(C(=O)[O-])c2c1 (3D coordinates assigned)
CN(C)CCNc1ccc2cc(C([NH-])=O)n(C(=O)[O-])c2c1 (optimized conformer: 76.8106640402128 kcal/mol)

>  <smiles>  (35) 
CN(C)CCNc1ccc2cc(C(N)=O)n(C(=O)O)c2c1

>  <score_type>  (35) 
oracle

>  <origin>  (35) 
adg

>  <m_score__min__energy>  (35) 
-6.6600000000000001

>  <m_primary>  (35) 
energy

$$$$
38:0
     RDKit          3D

 46 47  0  0  0  0  0  0  0  0999 V2000
  148.8090  154.0010  132.6780 C   0  0  0  0  0  0  0  0  0  0  0  0
  147.3270  154.0920  133.0460 C   0  0  0  0  0  0  0  0  0  0  0  0
  146.8740  155.5340  133.4040 C   0  0  1  0  0  0  0  0  0  0  0  0
  148.0980  156.4690  133.5650 C   0  0  0  0  0  0  0  0  0  0  0  0
  148.1810  157.3890  132.4920 O   0  0  0  0  0  0  0  0  0  0  0  0
  148.5990  158.6550  132.9540 C   0  0  0  0  0  0  0  0  0  0  0  0
  145.9600  156.0700  132.3650 N   0  0  0  0  0  0  0  0  0  0  0  0
  144.5720  155.9220  132.7410 C   0  0  0  0  0  0  0  0  0  0  0  0
  143.9520  154.6440  132.7200 C   0  0  0  0  0  0  0  0  0  0  0  0
  142.6010  154.4960  133.0750 C   0  0  0  0  0  0  0  0  0  0  0  0
  141.8960  155.6340  133.4520 C   0  0  0  0  0  0  0  0  0  0  0  0
  140.5780  155.7780  133.8190 C   0  0  0  0  0  0  0  0  0  0  0  0
  140.4120  157.1370  134.0780 C   0  0  0  0  0  0  0  0  0  0  0  0
  139.1540  157.7220  134.5860 C   0  0  0  0  0  0  0  0  0  0  0  0
  139.1210  158.3190  135.8800 N   0  0  0  0  0  0  0  0  0  0  0  0
  138.1140  157.7330  133.8750 O   0  0  0  0  0  0  0  0  0  0  0  0
  141.5810  157.8090  133.8730 N   0  0  0  0  0  0  0  0  0  0  0  0
  141.8090  159.2240  133.9620 C   0  0  0  0  0  0  0  0  0  0  0  0
  140.9870  159.9540  134.5800 O   0  0  0  0  0  0  0  0  0  0  0  0
  142.9550  159.7820  133.3830 O   0  0  0  0  0  0  0  0  0  0  0  0
  144.0350  160.3180  134.1430 C   0  0  0  0  0  0  0  0  0  0  0  0
  145.3350  160.0500  133.4560 C   0  0  0  0  0  0  0  0  0  0  0  0
  145.4310  159.1170  132.6150 O   0  0  0  0  0  0  0  0  0  0  0  0
  146.4390  160.8470  133.7260 O   0  0  0  0  0  0  0  0  0  0  0  0
  142.4790  156.8740  133.4920 C   0  0  0  0  0  0  0  0  0  0  0  0
  143.8170  157.0550  133.1240 C   0  0  0  0  0  0  0  0  0  0  0  0
  149.4133  153.9639  133.5964 H   0  0  0  0  0  0  0  0  0  0  0  0
  148.9847  153.0904  132.0865 H   0  0  0  0  0  0  0  0  0  0  0  0
  149.0948  154.8833  132.0865 H   0  0  0  0  0  0  0  0  0  0  0  0
  146.7318  153.7407  132.1902 H   0  0  0  0  0  0  0  0  0  0  0  0
  147.1727  153.4691  133.9394 H   0  0  0  0  0  0  0  0  0  0  0  0
  146.3341  155.4916  134.3615 H   0  0  0  0  0  0  0  0  0  0  0  0
  148.0032  157.0256  134.5090 H   0  0  0  0  0  0  0  0  0  0  0  0
  149.0097  155.8536  133.5690 H   0  0  0  0  0  0  0  0  0  0  0  0
  148.6012  158.6615  134.0540 H   0  0  0  0  0  0  0  0  0  0  0  0
  149.6137  158.8636  132.5841 H   0  0  0  0  0  0  0  0  0  0  0  0
  147.9080  159.4268  132.5841 H   0  0  0  0  0  0  0  0  0  0  0  0
  146.1460  155.5960  131.4500 H   0  0  0  0  0  0  0  0  0  0  0  0
  146.1330  157.0910  132.2190 H   0  0  0  0  0  0  0  0  0  0  0  0
  144.5362  153.7607  132.4225 H   0  0  0  0  0  0  0  0  0  0  0  0
  142.1151  153.5093  133.0554 H   0  0  0  0  0  0  0  0  0  0  0  0
  139.8165  154.9877  133.8924 H   0  0  0  0  0  0  0  0  0  0  0  0
  139.4380  159.3030  136.0250 H   0  0  0  0  0  0  0  0  0  0  0  0
  143.8988  161.4041  134.2513 H   0  0  0  0  0  0  0  0  0  0  0  0
  144.0481  159.8396  135.1334 H   0  0  0  0  0  0  0  0  0  0  0  0
  144.2716  158.0566  133.1324 H   0  0  0  0  0  0  0  0  0  0  0  0
  1  2  1  0
  2  3  1  0
  3  4  1  0
  4  5  1  0
  5  6  1  0
  3  7  1  0
  7  8  1  0
  8  9  2  0
  9 10  1  0
 10 11  2  0
 11 12  1  0
 12 13  2  0
 13 14  1  0
 14 15  1  0
 14 16  2  0
 13 17  1  0
 17 18  1  0
 18 19  2  0
 18 20  1  0
 20 21  1  0
 21 22  1  0
 22 23  2  0
 22 24  1  0
 17 25  1  0
 25 26  2  0
 26  8  1  0
 25 11  1  0
  1 27  1  0
  1 28  1  0
  1 29  1  0
  2 30  1  0
  2 31  1  0
  3 32  1  1
  4 33  1  0
  4 34  1  0
  6 35  1  0
  6 36  1  0
  6 37  1  0
  7 38  1  0
  7 39  1  0
  9 40  1  0
 10 41  1  0
 12 42  1  0
 15 43  1  0
 21 44  1  0
 21 45  1  0
 26 46  1  0
M  CHG  3   7   1  15  -1  24  -1
M  END
>  <UniqueID>  (36) 
35

>  <SMILES>  (36) 
CC[C@@H](COC)[NH2+]c1ccc2cc(C([NH-])=O)n(C(=O)OCC(=O)[O-])c2c1

>  <Energy>  (36) 
83.11450948168479

>  <Genealogy>  (36) 
CCC(COC)[NH2+]c1ccc2cc(C([NH-])=O)n(C(=O)OCC(=O)[O-])c2c1 (protonated)
CC[C@@H](COC)[NH2+]c1ccc2cc(C([NH-])=O)n(C(=O)OCC(=O)[O-])c2c1 (chirality)
CC[C@@H](COC)[NH2+]c1ccc2cc(C([NH-])=O)n(C(=O)OCC(=O)[O-])c2c1 (3D coordinates assigned)
CC[C@@H](COC)[NH2+]c1ccc2cc(C([NH-])=O)n(C(=O)OCC(=O)[O-])c2c1 (optimized conformer: 83.11450948168479 kcal/mol)

>  <smiles>  (36) 
CCC(COC)Nc1ccc2cc(C(N)=O)n(C(=O)OCC(=O)O)c2c1

>  <score_type>  (36) 
oracle

>  <origin>  (36) 
adg

>  <m_score__min__energy>  (36) 
-5.8399999999999999

>  <m_primary>  (36) 
energy

$$$$
39:0
     RDKit          3D

 40 42  0  0  0  0  0  0  0  0999 V2000
  138.7220  157.1230  132.9910 N   0  0  0  0  0  0  0  0  0  0  0  0
  139.7110  158.1120  133.2830 C   0  0  0  0  0  0  0  0  0  0  0  0
  139.3590  159.3130  133.4220 O   0  0  0  0  0  0  0  0  0  0  0  0
  141.1430  157.7620  133.3570 C   0  0  0  0  0  0  0  0  0  0  0  0
  142.1640  158.7070  133.3280 C   0  0  0  0  0  0  0  0  0  0  0  0
  143.3320  157.9810  133.3500 C   0  0  0  0  0  0  0  0  0  0  0  0
  144.6520  158.4150  133.3520 C   0  0  0  0  0  0  0  0  0  0  0  0
  145.6650  157.4460  133.4190 C   0  0  0  0  0  0  0  0  0  0  0  0
  145.3490  156.0630  133.4940 C   0  0  0  0  0  0  0  0  0  0  0  0
  146.4300  155.0490  133.5780 C   0  0  0  0  0  0  0  0  0  0  0  0
  146.7020  154.1830  134.6290 C   0  0  0  0  0  0  0  0  0  0  0  0
  147.7730  153.4270  134.3230 N   0  0  0  0  0  0  0  0  0  0  0  0
  148.1790  153.7800  133.1140 N   0  0  0  0  0  0  0  0  0  0  0  0
  149.3580  153.2200  132.4580 C   0  0  0  0  0  0  0  0  0  0  0  0
  149.2080  151.7000  132.2960 C   0  0  2  0  0  0  0  0  0  0  0  0
  147.8530  151.3480  132.4010 O   0  0  0  0  0  0  0  0  0  0  0  0
  150.0350  150.9450  133.3500 C   0  0  0  0  0  0  0  0  0  0  0  0
  149.3240  150.8110  134.5520 O   0  0  0  0  0  0  0  0  0  0  0  0
  147.3970  154.7640  132.6320 C   0  0  0  0  0  0  0  0  0  0  0  0
  143.9900  155.6650  133.4920 C   0  0  0  0  0  0  0  0  0  0  0  0
  143.0000  156.6520  133.4020 C   0  0  0  0  0  0  0  0  0  0  0  0
  141.6550  156.5000  133.4100 N   0  0  0  0  0  0  0  0  0  0  0  0
  140.9260  155.2710  133.5740 C   0  0  0  0  0  0  0  0  0  0  0  0
  141.1050  154.5530  134.5910 O   0  0  0  0  0  0  0  0  0  0  0  0
  140.0100  154.8670  132.6100 O   0  0  0  0  0  0  0  0  0  0  0  0
  138.9950  156.1550  132.7080 H   0  0  0  0  0  0  0  0  0  0  0  0
  137.7110  157.3810  132.9780 H   0  0  0  0  0  0  0  0  0  0  0  0
  142.0593  159.8015  133.2946 H   0  0  0  0  0  0  0  0  0  0  0  0
  144.8958  159.4865  133.3025 H   0  0  0  0  0  0  0  0  0  0  0  0
  146.7187  157.7619  133.4134 H   0  0  0  0  0  0  0  0  0  0  0  0
  146.1304  154.1239  135.5670 H   0  0  0  0  0  0  0  0  0  0  0  0
  149.4741  153.6807  131.4659 H   0  0  0  0  0  0  0  0  0  0  0  0
  150.2435  153.4277  133.0766 H   0  0  0  0  0  0  0  0  0  0  0  0
  149.5862  151.4156  131.3030 H   0  0  0  0  0  0  0  0  0  0  0  0
  147.5960  151.4800  133.3510 H   0  0  0  0  0  0  0  0  0  0  0  0
  150.2800  149.9443  132.9645 H   0  0  0  0  0  0  0  0  0  0  0  0
  150.9520  151.5188  133.5498 H   0  0  0  0  0  0  0  0  0  0  0  0
  148.5110  151.3760  134.4670 H   0  0  0  0  0  0  0  0  0  0  0  0
  147.5082  155.2562  131.6546 H   0  0  0  0  0  0  0  0  0  0  0  0
  143.7171  154.6016  133.5598 H   0  0  0  0  0  0  0  0  0  0  0  0
  1  2  1  0
  2  3  2  0
  2  4  1  0
  4  5  2  0
  5  6  1  0
  6  7  2  0
  7  8  1  0
  8  9  2  0
  9 10  1  0
 10 11  1  0
 11 12  2  0
 12 13  1  0
 13 14  1  0
 14 15  1  0
 15 16  1  0
 15 17  1  0
 17 18  1  0
 13 19  1  0
  9 20  1  0
 20 21  2  0
 21 22  1  0
 22 23  1  0
 23 24  2  0
 23 25  1  0
 22  4  1  0
 21  6  1  0
 19 10  2  0
  1 26  1  0
  1 27  1  0
  5 28  1  0
  7 29  1  0
  8 30  1  0
 11 31  1  0
 14 32  1  0
 14 33  1  0
 15 34  1  6
 16 35  1  0
 17 36  1  0
 17 37  1  0
 18 38  1  0
 19 39  1  0
 20 40  1  0
M  CHG  1  25  -1
M  END
>  <UniqueID>  (37) 
36

>  <SMILES>  (37) 
NC(=O)c1cc2ccc(-c3cnn(C[C@H](O)CO)c3)cc2n1C(=O)[O-]

>  <Energy>  (37) 
110.10018667017914

>  <Genealogy>  (37) 
NC(=O)c1cc2ccc(-c3cnn(C[C@H](O)CO)c3)cc2n1C(=O)[O-] (protonated)
NC(=O)c1cc2ccc(-c3cnn(C[C@H](O)CO)c3)cc2n1C(=O)[O-] (3D coordinates assigned)
NC(=O)c1cc2ccc(-c3cnn(C[C@H](O)CO)c3)cc2n1C(=O)[O-] (optimized conformer: 110.10018667017914 kcal/mol)

>  <smiles>  (37) 
NC(=O)c1cc2ccc(-c3cnn(C[C@H](O)CO)c3)cc2n1C(=O)O

>  <score_type>  (37) 
oracle

>  <origin>  (37) 
adg

>  <m_score__min__energy>  (37) 
-7.6100000000000003

>  <m_primary>  (37) 
energy

$$$$
40:0
     RDKit          3D

 40 41  0  0  0  0  0  0  0  0999 V2000
  141.7320  149.8470  132.5800 C   0  0  0  0  0  0  0  0  0  0  0  0
  140.7460  150.7800  131.8690 C   0  0  2  0  0  0  0  0  0  0  0  0
  140.3680  151.8900  132.7540 N   0  0  0  0  0  0  0  0  0  0  0  0
  141.1780  153.0590  132.9990 C   0  0  0  0  0  0  0  0  0  0  0  0
  142.5990  153.0160  132.9650 C   0  0  0  0  0  0  0  0  0  0  0  0
  143.3600  154.1700  133.2160 C   0  0  0  0  0  0  0  0  0  0  0  0
  142.6830  155.3540  133.4880 C   0  0  0  0  0  0  0  0  0  0  0  0
  143.1730  156.6030  133.7910 C   0  0  0  0  0  0  0  0  0  0  0  0
  142.0490  157.4030  133.9820 C   0  0  0  0  0  0  0  0  0  0  0  0
  142.1230  158.8560  134.2420 C   0  0  0  0  0  0  0  0  0  0  0  0
  141.5330  159.4220  135.4100 N   0  0  0  0  0  0  0  0  0  0  0  0
  142.6690  159.6140  133.3980 O   0  0  0  0  0  0  0  0  0  0  0  0
  140.9080  156.6760  133.8120 N   0  0  0  0  0  0  0  0  0  0  0  0
  139.5530  157.1080  134.0160 C   0  0  0  0  0  0  0  0  0  0  0  0
  138.7190  157.0510  133.0740 O   0  0  0  0  0  0  0  0  0  0  0  0
  139.1430  157.5670  135.2610 O   0  0  0  0  0  0  0  0  0  0  0  0
  141.3150  155.4220  133.5070 C   0  0  0  0  0  0  0  0  0  0  0  0
  140.5320  154.2850  133.2790 C   0  0  0  0  0  0  0  0  0  0  0  0
  139.5170  150.0180  131.4410 C   0  0  0  0  0  0  0  0  0  0  0  0
  138.3810  150.3870  131.8480 O   0  0  0  0  0  0  0  0  0  0  0  0
  139.6320  148.8990  130.5500 N   0  0  0  0  0  0  0  0  0  0  0  0
  138.4780  148.1100  130.1270 C   0  0  0  0  0  0  0  0  0  0  0  0
  138.8760  146.6480  129.9110 C   0  0  0  0  0  0  0  0  0  0  0  0
  140.2340  146.4660  130.2080 O   0  0  0  0  0  0  0  0  0  0  0  0
  141.6184  149.9545  133.6688 H   0  0  0  0  0  0  0  0  0  0  0  0
  141.5254  148.8060  132.2908 H   0  0  0  0  0  0  0  0  0  0  0  0
  142.7600  150.1108  132.2908 H   0  0  0  0  0  0  0  0  0  0  0  0
  141.2365  151.1901  130.9739 H   0  0  0  0  0  0  0  0  0  0  0  0
  139.4690  151.8100  133.2810 H   0  0  0  0  0  0  0  0  0  0  0  0
  143.1086  152.0676  132.7394 H   0  0  0  0  0  0  0  0  0  0  0  0
  144.4594  154.1380  133.1979 H   0  0  0  0  0  0  0  0  0  0  0  0
  144.2279  156.9056  133.8664 H   0  0  0  0  0  0  0  0  0  0  0  0
  140.5890  159.1200  135.7360 H   0  0  0  0  0  0  0  0  0  0  0  0
  139.4342  154.3440  133.3169 H   0  0  0  0  0  0  0  0  0  0  0  0
  140.5650  148.6670  130.1400 H   0  0  0  0  0  0  0  0  0  0  0  0
  137.7001  148.1622  130.9030 H   0  0  0  0  0  0  0  0  0  0  0  0
  138.0972  148.5180  129.1791 H   0  0  0  0  0  0  0  0  0  0  0  0
  138.2713  146.0060  130.5684 H   0  0  0  0  0  0  0  0  0  0  0  0
  138.7002  146.3803  128.8587 H   0  0  0  0  0  0  0  0  0  0  0  0
  140.7430  147.0040  129.5470 H   0  0  0  0  0  0  0  0  0  0  0  0
  1  2  1  0
  2  3  1  0
  3  4  1  0
  4  5  2  0
  5  6  1  0
  6  7  2  0
  7  8  1  0
  8  9  2  0
  9 10  1  0
 10 11  1  0
 10 12  2  0
  9 13  1  0
 13 14  1  0
 14 15  2  0
 14 16  1  0
 13 17  1  0
 17 18  2  0
  2 19  1  0
 19 20  2  0
 19 21  1  0
 21 22  1  0
 22 23  1  0
 23 24  1  0
 18  4  1  0
 17  7  1  0
  1 25  1  0
  1 26  1  0
  1 27  1  0
  2 28  1  6
  3 29  1  0
  5 30  1  0
  6 31  1  0
  8 32  1  0
 11 33  1  0
 18 34  1  0
 21 35  1  0
 22 36  1  0
 22 37  1  0
 23 38  1  0
 23 39  1  0
 24 40  1  0
M  CHG  2  11  -1  16  -1
M  END
>  <UniqueID>  (38) 
37

>  <SMILES>  (38) 
C[C@H](Nc1ccc2cc(C([NH-])=O)n(C(=O)[O-])c2c1)C(=O)NCCO

>  <Energy>  (38) 
73.86981465791611

>  <Genealogy>  (38) 
CC(Nc1ccc2cc(C([NH-])=O)n(C(=O)[O-])c2c1)C(=O)NCCO (protonated)
C[C@H](Nc1ccc2cc(C([NH-])=O)n(C(=O)[O-])c2c1)C(=O)NCCO (chirality)
C[C@H](Nc1ccc2cc(C([NH-])=O)n(C(=O)[O-])c2c1)C(=O)NCCO (3D coordinates assigned)
C[C@H](Nc1ccc2cc(C([NH-])=O)n(C(=O)[O-])c2c1)C(=O)NCCO (optimized conformer: 73.86981465791611 kcal/mol)

>  <smiles>  (38) 
CC(Nc1ccc2cc(C(N)=O)n(C(=O)O)c2c1)C(=O)NCCO

>  <score_type>  (38) 
oracle

>  <origin>  (38) 
adg

>  <m_score__min__energy>  (38) 
-7.25

>  <m_primary>  (38) 
energy

$$$$
41:0
     RDKit          3D

 43 44  0  0  0  0  0  0  0  0999 V2000
  143.3970  159.7520  133.7030 C   0  0  0  0  0  0  0  0  0  0  0  0
  144.7900  160.2150  133.7240 N   0  0  0  0  0  0  0  0  0  0  0  0
  145.0700  161.6070  134.1000 C   0  0  0  0  0  0  0  0  0  0  0  0
  145.8740  159.3090  133.3860 C   0  0  0  0  0  0  0  0  0  0  0  0
  147.1250  159.8100  132.9260 C   0  0  0  0  0  0  0  0  0  0  0  0
  148.1900  158.9430  132.6290 C   0  0  0  0  0  0  0  0  0  0  0  0
  147.9890  157.5790  132.8040 C   0  0  0  0  0  0  0  0  0  0  0  0
  148.8550  156.5240  132.6240 C   0  0  0  0  0  0  0  0  0  0  0  0
  148.1230  155.3860  132.9560 C   0  0  0  0  0  0  0  0  0  0  0  0
  148.6420  154.0110  132.8090 C   0  0  0  0  0  0  0  0  0  0  0  0
  147.7670  152.8890  132.8990 N   0  0  0  0  0  0  0  0  0  0  0  0
  149.8640  153.8250  132.5660 O   0  0  0  0  0  0  0  0  0  0  0  0
  146.8610  155.7270  133.3380 N   0  0  0  0  0  0  0  0  0  0  0  0
  145.8170  154.8650  133.8200 C   0  0  0  0  0  0  0  0  0  0  0  0
  144.7330  154.7820  133.1840 O   0  0  0  0  0  0  0  0  0  0  0  0
  145.9650  154.1260  135.1220 C   0  0  0  0  0  0  0  0  0  0  0  0
  146.9320  154.8450  136.0700 C   0  0  0  0  0  0  0  0  0  0  0  0
  148.0960  153.9740  136.4300 C   0  0  0  0  0  0  0  0  0  0  0  0
  148.3730  152.9740  135.7130 O   0  0  0  0  0  0  0  0  0  0  0  0
  148.8850  154.2970  137.5380 O   0  0  0  0  0  0  0  0  0  0  0  0
  148.9230  153.5070  138.7240 C   0  0  0  0  0  0  0  0  0  0  0  0
  148.4440  154.3010  139.8940 C   0  0  0  0  0  0  0  0  0  0  0  0
  149.2670  154.8720  140.6560 O   0  0  0  0  0  0  0  0  0  0  0  0
  147.0810  154.4450  140.1240 O   0  0  0  0  0  0  0  0  0  0  0  0
  146.7910  157.0700  133.2280 C   0  0  0  0  0  0  0  0  0  0  0  0
  145.7100  157.9070  133.5230 C   0  0  0  0  0  0  0  0  0  0  0  0
  143.0350  159.6317  134.7347 H   0  0  0  0  0  0  0  0  0  0  0  0
  142.7728  160.4910  133.1793 H   0  0  0  0  0  0  0  0  0  0  0  0
  143.3394  158.7864  133.1793 H   0  0  0  0  0  0  0  0  0  0  0  0
  145.0876  161.6942  135.1964 H   0  0  0  0  0  0  0  0  0  0  0  0
  146.0466  161.9075  133.6926 H   0  0  0  0  0  0  0  0  0  0  0  0
  144.2856  162.2617  133.6926 H   0  0  0  0  0  0  0  0  0  0  0  0
  147.2599  160.8945  132.8010 H   0  0  0  0  0  0  0  0  0  0  0  0
  149.1538  159.3321  132.2688 H   0  0  0  0  0  0  0  0  0  0  0  0
  149.9019  156.5698  132.2893 H   0  0  0  0  0  0  0  0  0  0  0  0
  147.7380  152.3000  133.7600 H   0  0  0  0  0  0  0  0  0  0  0  0
  144.9795  154.0524  135.6051 H   0  0  0  0  0  0  0  0  0  0  0  0
  146.3717  153.1268  134.9071 H   0  0  0  0  0  0  0  0  0  0  0  0
  147.3052  155.7550  135.5774 H   0  0  0  0  0  0  0  0  0  0  0  0
  146.3888  155.0946  136.9934 H   0  0  0  0  0  0  0  0  0  0  0  0
  148.2762  152.6268  138.5941 H   0  0  0  0  0  0  0  0  0  0  0  0
  149.9601  153.1901  138.9085 H   0  0  0  0  0  0  0  0  0  0  0  0
  144.7499  157.4854  133.8553 H   0  0  0  0  0  0  0  0  0  0  0  0
  1  2  1  0
  2  3  1  0
  2  4  1  0
  4  5  2  0
  5  6  1  0
  6  7  2  0
  7  8  1  0
  8  9  2  0
  9 10  1  0
 10 11  1  0
 10 12  2  0
  9 13  1  0
 13 14  1  0
 14 15  2  0
 14 16  1  0
 16 17  1  0
 17 18  1  0
 18 19  2  0
 18 20  1  0
 20 21  1  0
 21 22  1  0
 22 23  2  0
 22 24  1  0
 13 25  1  0
 25 26  2  0
 26  4  1  0
 25  7  1  0
  1 27  1  0
  1 28  1  0
  1 29  1  0
  3 30  1  0
  3 31  1  0
  3 32  1  0
  5 33  1  0
  6 34  1  0
  8 35  1  0
 11 36  1  0
 16 37  1  0
 16 38  1  0
 17 39  1  0
 17 40  1  0
 21 41  1  0
 21 42  1  0
 26 43  1  0
M  CHG  2  11  -1  24  -1
M  END
>  <UniqueID>  (39) 
38

>  <SMILES>  (39) 
CN(C)c1ccc2cc(C([NH-])=O)n(C(=O)CCC(=O)OCC(=O)[O-])c2c1

>  <Energy>  (39) 
75.3999056975367

>  <Genealogy>  (39) 
CN(C)c1ccc2cc(C([NH-])=O)n(C(=O)CCC(=O)OCC(=O)[O-])c2c1 (protonated)
CN(C)c1ccc2cc(C([NH-])=O)n(C(=O)CCC(=O)OCC(=O)[O-])c2c1 (3D coordinates assigned)
CN(C)c1ccc2cc(C([NH-])=O)n(C(=O)CCC(=O)OCC(=O)[O-])c2c1 (optimized conformer: 75.3999056975367 kcal/mol)

>  <smiles>  (39) 
CN(C)c1ccc2cc(C(N)=O)n(C(=O)CCC(=O)OCC(=O)O)c2c1

>  <score_type>  (39) 
oracle

>  <origin>  (39) 
adg

>  <m_score__min__energy>  (39) 
-6.6399999999999997

>  <m_primary>  (39) 
energy

$$$$
42:0
     RDKit          3D

 32 33  0  0  0  0  0  0  0  0999 V2000
  145.3070  153.0970  133.9360 N   0  0  0  0  0  0  0  0  0  0  0  0
  144.9940  154.3430  134.5560 C   0  0  0  0  0  0  0  0  0  0  0  0
  144.1560  154.3710  135.4960 O   0  0  0  0  0  0  0  0  0  0  0  0
  145.6840  155.5740  134.1170 C   0  0  0  0  0  0  0  0  0  0  0  0
  145.0350  156.7930  133.9300 C   0  0  0  0  0  0  0  0  0  0  0  0
  145.9960  157.6460  133.4350 C   0  0  0  0  0  0  0  0  0  0  0  0
  145.9050  158.9890  133.0830 C   0  0  0  0  0  0  0  0  0  0  0  0
  147.0680  159.6300  132.6240 C   0  0  0  0  0  0  0  0  0  0  0  0
  148.2910  158.9200  132.5240 C   0  0  0  0  0  0  0  0  0  0  0  0
  149.5360  159.6280  132.0790 C   0  0  0  0  0  0  0  0  0  0  0  0
  149.5130  159.8290  130.3100 Cl  0  0  0  0  0  0  0  0  0  0  0  0
  148.3480  157.5610  132.9030 C   0  0  0  0  0  0  0  0  0  0  0  0
  147.1700  156.9440  133.3400 C   0  0  0  0  0  0  0  0  0  0  0  0
  146.9970  155.6720  133.7610 N   0  0  0  0  0  0  0  0  0  0  0  0
  148.0140  154.6620  133.8510 C   0  0  0  0  0  0  0  0  0  0  0  0
  148.9510  154.6340  133.0070 O   0  0  0  0  0  0  0  0  0  0  0  0
  147.9490  153.7030  134.8670 O   0  0  0  0  0  0  0  0  0  0  0  0
  148.0170  154.0310  136.2530 C   0  0  0  0  0  0  0  0  0  0  0  0
  147.3500  153.0640  137.0320 O   0  0  0  0  0  0  0  0  0  0  0  0
  147.9790  153.0920  138.6200 P   0  0  0  0  0  0  0  0  0  0  0  0
  149.4080  153.5840  138.6110 O   0  0  0  0  0  0  0  0  0  0  0  0
  147.0410  154.0960  139.6080 O   0  0  0  0  0  0  0  0  0  0  0  0
  147.9430  151.5220  139.2470 O   0  0  0  0  0  0  0  0  0  0  0  0
  146.2260  152.6300  134.1040 H   0  0  0  0  0  0  0  0  0  0  0  0
  143.9793  157.0246  134.1344 H   0  0  0  0  0  0  0  0  0  0  0  0
  144.9518  159.5323  133.1616 H   0  0  0  0  0  0  0  0  0  0  0  0
  147.0292  160.6919  132.3398 H   0  0  0  0  0  0  0  0  0  0  0  0
  149.5855  160.6167  132.5586 H   0  0  0  0  0  0  0  0  0  0  0  0
  150.4156  159.0332  132.3664 H   0  0  0  0  0  0  0  0  0  0  0  0
  149.2939  157.0015  132.8560 H   0  0  0  0  0  0  0  0  0  0  0  0
  149.0720  154.0764  136.5610 H   0  0  0  0  0  0  0  0  0  0  0  0
  147.5292  155.0047  136.4081 H   0  0  0  0  0  0  0  0  0  0  0  0
  1  2  1  0
  2  3  2  0
  2  4  1  0
  4  5  2  0
  5  6  1  0
  6  7  2  0
  7  8  1  0
  8  9  2  0
  9 10  1  0
 10 11  1  0
  9 12  1  0
 12 13  2  0
 13 14  1  0
 14 15  1  0
 15 16  2  0
 15 17  1  0
 17 18  1  0
 18 19  1  0
 19 20  1  0
 20 21  2  0
 20 22  1  0
 20 23  1  0
 14  4  1  0
 13  6  1  0
  1 24  1  0
  5 25  1  0
  7 26  1  0
  8 27  1  0
 10 28  1  0
 10 29  1  0
 12 30  1  0
 18 31  1  0
 18 32  1  0
M  CHG  3   1  -1  22  -1  23  -1
M  END
>  <UniqueID>  (40) 
39

>  <SMILES>  (40) 
[NH-]C(=O)c1cc2ccc(CCl)cc2n1C(=O)OCOP(=O)([O-])[O-]

>  <Energy>  (40) 
68.12597987383683

>  <Genealogy>  (40) 
[NH-]C(=O)c1cc2ccc(CCl)cc2n1C(=O)OCOP(=O)([O-])[O-] (protonated)
[NH-]C(=O)c1cc2ccc(CCl)cc2n1C(=O)OCOP(=O)([O-])[O-] (3D coordinates assigned)
[NH-]C(=O)c1cc2ccc(CCl)cc2n1C(=O)OCOP(=O)([O-])[O-] (optimized conformer: 68.12597987383683 kcal/mol)

>  <smiles>  (40) 
NC(=O)c1cc2ccc(CCl)cc2n1C(=O)OCOP(=O)(O)O

>  <score_type>  (40) 
oracle

>  <origin>  (40) 
adg

>  <m_score__min__energy>  (40) 
-6.8600000000000003

>  <m_primary>  (40) 
energy

$$$$
43:0
     RDKit          3D

 46 47  0  0  0  0  0  0  0  0999 V2000
  148.4620  154.7560  134.2570 H   0  0  0  0  0  0  0  0  0  0  0  0
  148.0990  155.7340  134.3140 N   0  0  0  0  0  0  0  0  0  0  0  0
  147.4630  156.3450  133.1930 C   0  0  0  0  0  0  0  0  0  0  0  0
  147.7230  155.9260  132.0350 O   0  0  0  0  0  0  0  0  0  0  0  0
  146.4780  157.4320  133.3760 C   0  0  0  0  0  0  0  0  0  0  0  0
  146.8280  158.7760  133.5000 C   0  0  0  0  0  0  0  0  0  0  0  0
  147.8423  159.2012  133.5214 H   0  0  0  0  0  0  0  0  0  0  0  0
  145.6360  159.4580  133.5900 C   0  0  0  0  0  0  0  0  0  0  0  0
  145.3920  160.8200  133.7450 C   0  0  0  0  0  0  0  0  0  0  0  0
  146.2198  161.5431  133.7878 H   0  0  0  0  0  0  0  0  0  0  0  0
  144.0560  161.2420  133.8450 C   0  0  0  0  0  0  0  0  0  0  0  0
  143.8301  162.3120  133.9632 H   0  0  0  0  0  0  0  0  0  0  0  0
  142.9950  160.3010  133.7950 C   0  0  0  0  0  0  0  0  0  0  0  0
  141.5750  160.7720  133.9210 C   0  0  0  0  0  0  0  0  0  0  0  0
  141.5617  161.8719  133.9323 H   0  0  0  0  0  0  0  0  0  0  0  0
  141.0250  160.2920  135.0960 F   0  0  0  0  0  0  0  0  0  0  0  0
  140.8340  160.3120  132.8490 F   0  0  0  0  0  0  0  0  0  0  0  0
  143.2830  158.9270  133.6410 C   0  0  0  0  0  0  0  0  0  0  0  0
  142.4749  158.1812  133.6137 H   0  0  0  0  0  0  0  0  0  0  0  0
  144.6220  158.5380  133.5240 C   0  0  0  0  0  0  0  0  0  0  0  0
  145.1230  157.2910  133.3910 N   0  0  0  0  0  0  0  0  0  0  0  0
  144.3670  156.0710  133.3600 C   0  0  0  0  0  0  0  0  0  0  0  0
  143.1310  156.1110  133.1140 O   0  0  0  0  0  0  0  0  0  0  0  0
  145.0390  154.7820  133.6130 C   0  0  0  0  0  0  0  0  0  0  0  0
  145.1984  154.4630  134.6536 H   0  0  0  0  0  0  0  0  0  0  0  0
  145.4610  153.9880  132.6250 C   0  0  0  0  0  0  0  0  0  0  0  0
  145.2947  154.2858  131.5792 H   0  0  0  0  0  0  0  0  0  0  0  0
  146.1590  152.6950  132.9260 C   0  0  0  0  0  0  0  0  0  0  0  0
  146.1779  152.0722  132.0195 H   0  0  0  0  0  0  0  0  0  0  0  0
  145.6178  152.1721  133.7283 H   0  0  0  0  0  0  0  0  0  0  0  0
  147.5410  152.9560  133.3670 N   0  0  0  0  0  0  0  0  0  0  0  0
  147.7490  153.9760  133.2360 H   0  0  0  0  0  0  0  0  0  0  0  0
  148.6190  152.1480  132.7370 C   0  0  0  0  0  0  0  0  0  0  0  0
  148.0600  151.0250  131.8280 C   0  0  0  0  0  0  0  0  0  0  0  0
  147.6565  150.2144  132.4526 H   0  0  0  0  0  0  0  0  0  0  0  0
  147.2592  151.4318  131.1930 H   0  0  0  0  0  0  0  0  0  0  0  0
  148.8673  150.6313  131.1930 H   0  0  0  0  0  0  0  0  0  0  0  0
  149.3910  151.4680  133.8850 C   0  0  0  0  0  0  0  0  0  0  0  0
  148.9951  151.8168  134.8502 H   0  0  0  0  0  0  0  0  0  0  0  0
  149.2708  150.3770  133.8120 H   0  0  0  0  0  0  0  0  0  0  0  0
  150.4581  151.7250  133.8120 H   0  0  0  0  0  0  0  0  0  0  0  0
  149.6240  153.0390  131.9520 C   0  0  0  0  0  0  0  0  0  0  0  0
  150.5923  152.5201  131.8970 H   0  0  0  0  0  0  0  0  0  0  0  0
  149.2123  153.2152  130.9473 H   0  0  0  0  0  0  0  0  0  0  0  0
  149.8100  154.2810  132.5700 O   0  0  0  0  0  0  0  0  0  0  0  0
  148.9220  154.5550  132.9160 H   0  0  0  0  0  0  0  0  0  0  0  0
  1  2  1  0
  2  3  1  0
  3  4  2  0
  3  5  1  0
  5  6  2  0
  6  7  1  0
  6  8  1  0
  8  9  2  0
  9 10  1  0
  9 11  1  0
 11 12  1  0
 11 13  2  0
 13 14  1  0
 14 15  1  0
 14 16  1  0
 14 17  1  0
 13 18  1  0
 18 19  1  0
 18 20  2  0
 20 21  1  0
 21 22  1  0
 22 23  2  0
 22 24  1  0
 24 25  1  0
 24 26  2  0
 26 27  1  0
 26 28  1  0
 28 29  1  0
 28 30  1  0
 28 31  1  0
 31 32  1  0
 31 33  1  0
 33 34  1  0
 34 35  1  0
 34 36  1  0
 34 37  1  0
 33 38  1  0
 38 39  1  0
 38 40  1  0
 38 41  1  0
 33 42  1  0
 42 43  1  0
 42 44  1  0
 42 45  1  0
 45 46  1  0
 21  5  1  0
 20  8  1  0
M  CHG  1   2  -1
M  END
>  <UniqueID>  (41) 
40

>  <SMILES>  (41) 
CC(C)(CO)NC/C=C/C(=O)n1c(C([NH-])=O)cc2ccc(C(F)F)cc21

>  <Energy>  (41) 
84.93248527187242

>  <Genealogy>  (41) 
CC(C)(CO)NC/C=C/C(=O)n1c(C([NH-])=O)cc2ccc(C(F)F)cc21 (protonated)
CC(C)(CO)NC/C=C/C(=O)n1c(C([NH-])=O)cc2ccc(C(F)F)cc21 (cis-trans isomerization)
CC(C)(CO)NC/C=C/C(=O)n1c(C([NH-])=O)cc2ccc(C(F)F)cc21 (3D coordinates assigned)
CC(C)(CO)NC/C=C/C(=O)n1c(C([NH-])=O)cc2ccc(C(F)F)cc21 (optimized conformer: 84.93248527187242 kcal/mol)

>  <smiles>  (41) 
CC(C)(CO)NC/C=C/C(=O)n1c(C(N)=O)cc2ccc(C(F)F)cc21

>  <score_type>  (41) 
oracle

>  <origin>  (41) 
adg

>  <m_score__min__energy>  (41) 
-7.3700000000000001

>  <m_primary>  (41) 
energy

$$$$
44:0
     RDKit          3D

 41 42  0  0  0  0  0  0  0  0999 V2000
  146.1990  162.8890  134.8410 N   0  0  0  0  0  0  0  0  0  0  0  0
  145.0400  162.4730  134.1250 C   0  0  0  0  0  0  0  0  0  0  0  0
  144.2520  163.3430  133.6650 O   0  0  0  0  0  0  0  0  0  0  0  0
  144.7200  161.0390  133.9620 C   0  0  0  0  0  0  0  0  0  0  0  0
  143.4570  160.5030  134.2100 C   0  0  0  0  0  0  0  0  0  0  0  0
  143.5970  159.1450  134.0350 C   0  0  0  0  0  0  0  0  0  0  0  0
  142.6530  158.1280  134.1370 C   0  0  0  0  0  0  0  0  0  0  0  0
  143.0680  156.8130  133.8650 C   0  0  0  0  0  0  0  0  0  0  0  0
  144.4100  156.5420  133.4980 C   0  0  0  0  0  0  0  0  0  0  0  0
  144.8300  155.1340  133.1650 C   0  0  0  0  0  0  0  0  0  0  0  0
  146.1130  155.1020  132.3210 C   0  0  0  0  0  0  0  0  0  0  0  0
  147.3740  155.3440  133.1690 C   0  0  0  0  0  0  0  0  0  0  0  0
  148.2550  156.4720  132.6050 C   0  0  0  0  0  0  0  0  0  0  0  0
  148.4410  157.5660  133.5600 N   0  0  0  0  0  0  0  0  0  0  0  0
  145.3400  157.6020  133.3990 C   0  0  0  0  0  0  0  0  0  0  0  0
  144.9010  158.8990  133.6900 C   0  0  0  0  0  0  0  0  0  0  0  0
  145.6020  160.0520  133.6370 N   0  0  0  0  0  0  0  0  0  0  0  0
  146.9720  160.1930  133.2310 C   0  0  0  0  0  0  0  0  0  0  0  0
  147.8620  160.4340  134.0910 O   0  0  0  0  0  0  0  0  0  0  0  0
  147.3080  160.0890  131.8750 O   0  0  0  0  0  0  0  0  0  0  0  0
  148.4240  160.7540  131.2920 C   0  0  0  0  0  0  0  0  0  0  0  0
  149.5440  159.7890  131.0680 C   0  0  0  0  0  0  0  0  0  0  0  0
  150.1300  159.7420  129.9550 O   0  0  0  0  0  0  0  0  0  0  0  0
  149.9600  158.9580  132.1000 O   0  0  0  0  0  0  0  0  0  0  0  0
  147.0690  162.3130  134.8360 H   0  0  0  0  0  0  0  0  0  0  0  0
  142.5432  161.0492  134.4867 H   0  0  0  0  0  0  0  0  0  0  0  0
  141.6133  158.3465  134.4219 H   0  0  0  0  0  0  0  0  0  0  0  0
  142.3451  155.9871  133.9376 H   0  0  0  0  0  0  0  0  0  0  0  0
  145.0070  154.5850  134.1016 H   0  0  0  0  0  0  0  0  0  0  0  0
  144.0247  154.6685  132.5778 H   0  0  0  0  0  0  0  0  0  0  0  0
  146.1947  154.1170  131.8381 H   0  0  0  0  0  0  0  0  0  0  0  0
  146.0472  155.9092  131.5766 H   0  0  0  0  0  0  0  0  0  0  0  0
  147.0662  155.6137  134.1900 H   0  0  0  0  0  0  0  0  0  0  0  0
  147.9678  154.4181  133.1572 H   0  0  0  0  0  0  0  0  0  0  0  0
  149.2404  156.0558  132.3485 H   0  0  0  0  0  0  0  0  0  0  0  0
  147.7477  156.8826  131.7195 H   0  0  0  0  0  0  0  0  0  0  0  0
  148.1190  158.4620  133.1270 H   0  0  0  0  0  0  0  0  0  0  0  0
  149.4560  157.6580  133.7850 H   0  0  0  0  0  0  0  0  0  0  0  0
  146.3818  157.4126  133.1010 H   0  0  0  0  0  0  0  0  0  0  0  0
  148.1232  161.1909  130.3284 H   0  0  0  0  0  0  0  0  0  0  0  0
  148.7653  161.5461  131.9747 H   0  0  0  0  0  0  0  0  0  0  0  0
  1  2  1  0
  2  3  2  0
  2  4  1  0
  4  5  2  0
  5  6  1  0
  6  7  2  0
  7  8  1  0
  8  9  2  0
  9 10  1  0
 10 11  1  0
 11 12  1  0
 12 13  1  0
 13 14  1  0
  9 15  1  0
 15 16  2  0
 16 17  1  0
 17 18  1  0
 18 19  2  0
 18 20  1  0
 20 21  1  0
 21 22  1  0
 22 23  2  0
 22 24  1  0
 17  4  1  0
 16  6  1  0
  1 25  1  0
  5 26  1  0
  7 27  1  0
  8 28  1  0
 10 29  1  0
 10 30  1  0
 11 31  1  0
 11 32  1  0
 12 33  1  0
 12 34  1  0
 13 35  1  0
 13 36  1  0
 14 37  1  0
 14 38  1  0
 15 39  1  0
 21 40  1  0
 21 41  1  0
M  CHG  2   1  -1  24  -1
M  END
>  <UniqueID>  (42) 
41

>  <SMILES>  (42) 
[NH-]C(=O)c1cc2ccc(CCCCN)cc2n1C(=O)OCC(=O)[O-]

>  <Energy>  (42) 
71.26968566188253

>  <Genealogy>  (42) 
[NH-]C(=O)c1cc2ccc(CCCCN)cc2n1C(=O)OCC(=O)[O-] (protonated)
[NH-]C(=O)c1cc2ccc(CCCCN)cc2n1C(=O)OCC(=O)[O-] (3D coordinates assigned)
[NH-]C(=O)c1cc2ccc(CCCCN)cc2n1C(=O)OCC(=O)[O-] (optimized conformer: 71.26968566188253 kcal/mol)

>  <smiles>  (42) 
NCCCCc1ccc2cc(C(N)=O)n(C(=O)OCC(=O)O)c2c1

>  <score_type>  (42) 
oracle

>  <origin>  (42) 
adg

>  <m_score__min__energy>  (42) 
-5.8300000000000001

>  <m_primary>  (42) 
energy

$$$$
45:0
     RDKit          3D

 34 35  0  0  0  0  0  0  0  0999 V2000
  139.5080  157.8880  133.2550 C   0  0  0  0  0  0  0  0  0  0  0  0
  140.3810  158.2080  134.3910 N   0  0  0  0  0  0  0  0  0  0  0  0
  139.9220  157.9140  135.7600 C   0  0  0  0  0  0  0  0  0  0  0  0
  140.9310  158.4080  136.8020 C   0  0  0  0  0  0  0  0  0  0  0  0
  140.6210  159.7140  137.2070 O   0  0  0  0  0  0  0  0  0  0  0  0
  141.6640  158.8330  134.1510 C   0  0  0  0  0  0  0  0  0  0  0  0
  141.7520  160.2400  133.9720 C   0  0  0  0  0  0  0  0  0  0  0  0
  142.9880  160.8610  133.7330 C   0  0  0  0  0  0  0  0  0  0  0  0
  144.1230  160.0590  133.6830 C   0  0  0  0  0  0  0  0  0  0  0  0
  145.4340  160.3990  133.4440 C   0  0  0  0  0  0  0  0  0  0  0  0
  146.1410  159.1990  133.4980 C   0  0  0  0  0  0  0  0  0  0  0  0
  147.6150  159.1060  133.3850 C   0  0  0  0  0  0  0  0  0  0  0  0
  148.3390  158.0940  134.0870 N   0  0  0  0  0  0  0  0  0  0  0  0
  148.2440  159.9040  132.6390 O   0  0  0  0  0  0  0  0  0  0  0  0
  145.2990  158.1590  133.7580 N   0  0  0  0  0  0  0  0  0  0  0  0
  145.6270  156.7620  133.8390 C   0  0  0  0  0  0  0  0  0  0  0  0
  145.1760  155.9530  132.9860 O   0  0  0  0  0  0  0  0  0  0  0  0
  146.4340  156.2870  134.8660 O   0  0  0  0  0  0  0  0  0  0  0  0
  144.0660  158.7040  133.8690 C   0  0  0  0  0  0  0  0  0  0  0  0
  142.8450  158.0540  134.0880 C   0  0  0  0  0  0  0  0  0  0  0  0
  138.5364  157.5319  133.6281 H   0  0  0  0  0  0  0  0  0  0  0  0
  139.3576  158.7895  132.6428 H   0  0  0  0  0  0  0  0  0  0  0  0
  139.9758  157.1029  132.6428 H   0  0  0  0  0  0  0  0  0  0  0  0
  138.9571  158.4142  135.9299 H   0  0  0  0  0  0  0  0  0  0  0  0
  139.8184  156.8240  135.8656 H   0  0  0  0  0  0  0  0  0  0  0  0
  140.9031  157.7417  137.6768 H   0  0  0  0  0  0  0  0  0  0  0  0
  141.9354  158.4042  136.3535 H   0  0  0  0  0  0  0  0  0  0  0  0
  139.6460  159.7310  137.3950 H   0  0  0  0  0  0  0  0  0  0  0  0
  140.8387  160.8511  134.0214 H   0  0  0  0  0  0  0  0  0  0  0  0
  143.0567  161.9494  133.5896 H   0  0  0  0  0  0  0  0  0  0  0  0
  145.8384  161.4037  133.2513 H   0  0  0  0  0  0  0  0  0  0  0  0
  149.3730  158.0130  133.9690 H   0  0  0  0  0  0  0  0  0  0  0  0
  147.8620  157.4510  134.7570 H   0  0  0  0  0  0  0  0  0  0  0  0
  142.8041  156.9614  134.2085 H   0  0  0  0  0  0  0  0  0  0  0  0
  1  2  1  0
  2  3  1  0
  3  4  1  0
  4  5  1  0
  2  6  1  0
  6  7  2  0
  7  8  1  0
  8  9  2  0
  9 10  1  0
 10 11  2  0
 11 12  1  0
 12 13  1  0
 12 14  2  0
 11 15  1  0
 15 16  1  0
 16 17  2  0
 16 18  1  0
 15 19  1  0
 19 20  2  0
 20  6  1  0
 19  9  1  0
  1 21  1  0
  1 22  1  0
  1 23  1  0
  3 24  1  0
  3 25  1  0
  4 26  1  0
  4 27  1  0
  5 28  1  0
  7 29  1  0
  8 30  1  0
 10 31  1  0
 13 32  1  0
 13 33  1  0
 20 34  1  0
M  CHG  1  18  -1
M  END
>  <UniqueID>  (43) 
42

>  <SMILES>  (43) 
CN(CCO)c1ccc2cc(C(N)=O)n(C(=O)[O-])c2c1

>  <Energy>  (43) 
73.25963278079941

>  <Genealogy>  (43) 
CN(CCO)c1ccc2cc(C(N)=O)n(C(=O)[O-])c2c1 (protonated)
CN(CCO)c1ccc2cc(C(N)=O)n(C(=O)[O-])c2c1 (3D coordinates assigned)
CN(CCO)c1ccc2cc(C(N)=O)n(C(=O)[O-])c2c1 (optimized conformer: 73.25963278079941 kcal/mol)

>  <smiles>  (43) 
CN(CCO)c1ccc2cc(C(N)=O)n(C(=O)O)c2c1

>  <score_type>  (43) 
oracle

>  <origin>  (43) 
adg

>  <m_score__min__energy>  (43) 
-6

>  <m_primary>  (43) 
energy

$$$$
46:0
     RDKit          3D

 48 49  0  0  0  0  0  0  0  0999 V2000
  150.4300  150.3530  130.5350 C   0  0  0  0  0  0  0  0  0  0  0  0
  149.8610  150.6210  131.9240 C   0  0  0  0  0  0  0  0  0  0  0  0
  149.9650  152.0050  132.2510 O   0  0  0  0  0  0  0  0  0  0  0  0
  148.8560  152.8460  132.4010 C   0  0  0  0  0  0  0  0  0  0  0  0
  147.6870  152.4110  132.2190 O   0  0  0  0  0  0  0  0  0  0  0  0
  149.0650  154.2830  132.7590 C   0  0  0  0  0  0  0  0  0  0  0  0
  147.9080  155.0840  132.3610 N   0  0  0  0  0  0  0  0  0  0  0  0
  147.7620  156.4930  132.6260 C   0  0  0  0  0  0  0  0  0  0  0  0
  148.8760  157.3760  132.6110 C   0  0  0  0  0  0  0  0  0  0  0  0
  148.7110  158.7440  132.8820 C   0  0  0  0  0  0  0  0  0  0  0  0
  147.4290  159.2060  133.1580 C   0  0  0  0  0  0  0  0  0  0  0  0
  146.9940  160.4720  133.4780 C   0  0  0  0  0  0  0  0  0  0  0  0
  145.6190  160.3530  133.6650 C   0  0  0  0  0  0  0  0  0  0  0  0
  144.7330  161.5020  133.9460 C   0  0  0  0  0  0  0  0  0  0  0  0
  143.3270  161.3820  133.7360 N   0  0  0  0  0  0  0  0  0  0  0  0
  145.1980  162.5780  134.4060 O   0  0  0  0  0  0  0  0  0  0  0  0
  145.2200  159.0640  133.4740 N   0  0  0  0  0  0  0  0  0  0  0  0
  143.9030  158.5190  133.6490 C   0  0  0  0  0  0  0  0  0  0  0  0
  143.3670  157.8700  132.7110 O   0  0  0  0  0  0  0  0  0  0  0  0
  143.2410  158.6970  134.8730 O   0  0  0  0  0  0  0  0  0  0  0  0
  141.8440  158.4800  135.1250 C   0  0  0  0  0  0  0  0  0  0  0  0
  141.5530  159.0050  136.5380 C   0  0  0  0  0  0  0  0  0  0  0  0
  140.9820  159.2610  134.1160 C   0  0  0  0  0  0  0  0  0  0  0  0
  141.5130  156.9760  135.0740 C   0  0  0  0  0  0  0  0  0  0  0  0
  146.3400  158.3740  133.1630 C   0  0  0  0  0  0  0  0  0  0  0  0
  146.4770  157.0040  132.9150 C   0  0  0  0  0  0  0  0  0  0  0  0
  151.4215  149.8860  130.6288 H   0  0  0  0  0  0  0  0  0  0  0  0
  149.7568  149.6773  129.9871 H   0  0  0  0  0  0  0  0  0  0  0  0
  150.5222  151.3024  129.9871 H   0  0  0  0  0  0  0  0  0  0  0  0
  148.8022  150.3234  131.9444 H   0  0  0  0  0  0  0  0  0  0  0  0
  150.4345  150.0388  132.6603 H   0  0  0  0  0  0  0  0  0  0  0  0
  149.2072  154.3681  133.8464 H   0  0  0  0  0  0  0  0  0  0  0  0
  149.9544  154.6556  132.2297 H   0  0  0  0  0  0  0  0  0  0  0  0
  147.1460  154.5920  131.8410 H   0  0  0  0  0  0  0  0  0  0  0  0
  149.8783  156.9834  132.3846 H   0  0  0  0  0  0  0  0  0  0  0  0
  149.5709  159.4300  132.8761 H   0  0  0  0  0  0  0  0  0  0  0  0
  147.6028  161.3838  133.5671 H   0  0  0  0  0  0  0  0  0  0  0  0
  142.8780  160.4460  133.6360 H   0  0  0  0  0  0  0  0  0  0  0  0
  141.9462  158.2955  137.2810 H   0  0  0  0  0  0  0  0  0  0  0  0
  142.0377  159.9832  136.6727 H   0  0  0  0  0  0  0  0  0  0  0  0
  140.4666  159.1124  136.6727 H   0  0  0  0  0  0  0  0  0  0  0  0
  140.2731  159.9033  134.6592 H   0  0  0  0  0  0  0  0  0  0  0  0
  141.6316  159.8844  133.4840 H   0  0  0  0  0  0  0  0  0  0  0  0
  140.4255  158.5532  133.4840 H   0  0  0  0  0  0  0  0  0  0  0  0
  141.4269  156.5846  136.0984 H   0  0  0  0  0  0  0  0  0  0  0  0
  140.5608  156.8279  134.5436 H   0  0  0  0  0  0  0  0  0  0  0  0
  142.3151  156.4418  134.5436 H   0  0  0  0  0  0  0  0  0  0  0  0
  145.6019  156.3382  132.9444 H   0  0  0  0  0  0  0  0  0  0  0  0
  1  2  1  0
  2  3  1  0
  3  4  1  0
  4  5  2  0
  4  6  1  0
  6  7  1  0
  7  8  1  0
  8  9  2  0
  9 10  1  0
 10 11  2  0
 11 12  1  0
 12 13  2  0
 13 14  1  0
 14 15  1  0
 14 16  2  0
 13 17  1  0
 17 18  1  0
 18 19  2  0
 18 20  1  0
 20 21  1  0
 21 22  1  0
 21 23  1  0
 21 24  1  0
 17 25  1  0
 25 26  2  0
 26  8  1  0
 25 11  1  0
  1 27  1  0
  1 28  1  0
  1 29  1  0
  2 30  1  0
  2 31  1  0
  6 32  1  0
  6 33  1  0
  7 34  1  0
  9 35  1  0
 10 36  1  0
 12 37  1  0
 15 38  1  0
 22 39  1  0
 22 40  1  0
 22 41  1  0
 23 42  1  0
 23 43  1  0
 23 44  1  0
 24 45  1  0
 24 46  1  0
 24 47  1  0
 26 48  1  0
M  CHG  1  15  -1
M  END
>  <UniqueID>  (44) 
43

>  <SMILES>  (44) 
CCOC(=O)CNc1ccc2cc(C([NH-])=O)n(C(=O)OC(C)(C)C)c2c1

>  <Energy>  (44) 
75.98413972965587

>  <Genealogy>  (44) 
CCOC(=O)CNc1ccc2cc(C([NH-])=O)n(C(=O)OC(C)(C)C)c2c1 (protonated)
CCOC(=O)CNc1ccc2cc(C([NH-])=O)n(C(=O)OC(C)(C)C)c2c1 (3D coordinates assigned)
CCOC(=O)CNc1ccc2cc(C([NH-])=O)n(C(=O)OC(C)(C)C)c2c1 (optimized conformer: 75.98413972965587 kcal/mol)

>  <smiles>  (44) 
CCOC(=O)CNc1ccc2cc(C(N)=O)n(C(=O)OC(C)(C)C)c2c1

>  <score_type>  (44) 
oracle

>  <origin>  (44) 
adg

>  <m_score__min__energy>  (44) 
-7.2699999999999996

>  <m_primary>  (44) 
energy

$$$$
47:0
     RDKit          3D

 43 45  0  0  0  0  0  0  0  0999 V2000
  149.1500  161.2330  131.0990 C   0  0  0  0  0  0  0  0  0  0  0  0
  148.7250  159.7630  131.2960 C   0  0  0  0  0  0  0  0  0  0  0  0
  149.5590  159.1490  132.4450 C   0  0  0  0  0  0  0  0  0  0  0  0
  148.9620  158.9910  129.9770 C   0  0  0  0  0  0  0  0  0  0  0  0
  147.3270  159.7690  131.6240 O   0  0  0  0  0  0  0  0  0  0  0  0
  146.7730  159.8060  132.9220 C   0  0  0  0  0  0  0  0  0  0  0  0
  147.1790  160.6540  133.7670 O   0  0  0  0  0  0  0  0  0  0  0  0
  145.7620  158.8400  133.2910 N   0  0  0  0  0  0  0  0  0  0  0  0
  144.4550  159.1070  133.5830 C   0  0  0  0  0  0  0  0  0  0  0  0
  143.8780  160.4400  133.8290 C   0  0  0  0  0  0  0  0  0  0  0  0
  144.5960  161.6210  133.4580 N   0  0  0  0  0  0  0  0  0  0  0  0
  142.7660  160.5410  134.4160 O   0  0  0  0  0  0  0  0  0  0  0  0
  143.7240  157.9370  133.7210 C   0  0  0  0  0  0  0  0  0  0  0  0
  144.6320  156.9230  133.5360 C   0  0  0  0  0  0  0  0  0  0  0  0
  144.4440  155.5440  133.5830 C   0  0  0  0  0  0  0  0  0  0  0  0
  145.5610  154.7170  133.3770 C   0  0  0  0  0  0  0  0  0  0  0  0
  146.8430  155.2710  133.1210 C   0  0  0  0  0  0  0  0  0  0  0  0
  148.0080  154.3660  132.9480 C   0  0  0  0  0  0  0  0  0  0  0  0
  149.2980  154.7230  132.6020 C   0  0  0  0  0  0  0  0  0  0  0  0
  150.0180  153.6280  132.5840 O   0  0  0  0  0  0  0  0  0  0  0  0
  149.2250  152.6320  132.9030 C   0  0  0  0  0  0  0  0  0  0  0  0
  149.6680  151.2360  132.9890 C   0  0  0  0  0  0  0  0  0  0  0  0
  149.9740  150.7360  134.1050 O   0  0  0  0  0  0  0  0  0  0  0  0
  149.7580  150.4610  131.8340 O   0  0  0  0  0  0  0  0  0  0  0  0
  147.9590  153.0310  133.1420 N   0  0  0  0  0  0  0  0  0  0  0  0
  146.9890  156.6780  133.0570 C   0  0  0  0  0  0  0  0  0  0  0  0
  145.8580  157.4850  133.2810 C   0  0  0  0  0  0  0  0  0  0  0  0
  149.2878  161.7096  132.0808 H   0  0  0  0  0  0  0  0  0  0  0  0
  150.0954  161.2693  130.5379 H   0  0  0  0  0  0  0  0  0  0  0  0
  148.3698  161.7682  130.5379 H   0  0  0  0  0  0  0  0  0  0  0  0
  149.1363  159.4602  133.4117 H   0  0  0  0  0  0  0  0  0  0  0  0
  149.5344  158.0518  132.3702 H   0  0  0  0  0  0  0  0  0  0  0  0
  150.5994  159.4984  132.3702 H   0  0  0  0  0  0  0  0  0  0  0  0
  149.2778  157.9624  130.2058 H   0  0  0  0  0  0  0  0  0  0  0  0
  148.0298  158.9672  129.3935 H   0  0  0  0  0  0  0  0  0  0  0  0
  149.7470  159.4943  129.3935 H   0  0  0  0  0  0  0  0  0  0  0  0
  144.1770  162.5640  133.6150 H   0  0  0  0  0  0  0  0  0  0  0  0
  145.5590  161.5590  133.0400 H   0  0  0  0  0  0  0  0  0  0  0  0
  142.6488  157.8414  133.9329 H   0  0  0  0  0  0  0  0  0  0  0  0
  143.4498  155.1146  133.7758 H   0  0  0  0  0  0  0  0  0  0  0  0
  145.4405  153.6243  133.4146 H   0  0  0  0  0  0  0  0  0  0  0  0
  149.6548  155.7400  132.3821 H   0  0  0  0  0  0  0  0  0  0  0  0
  147.9668  157.1311  132.8366 H   0  0  0  0  0  0  0  0  0  0  0  0
  1  2  1  0
  2  3  1  0
  2  4  1  0
  2  5  1  0
  5  6  1  0
  6  7  2  0
  6  8  1  0
  8  9  1  0
  9 10  1  0
 10 11  1  0
 10 12  2  0
  9 13  2  0
 13 14  1  0
 14 15  2  0
 15 16  1  0
 16 17  2  0
 17 18  1  0
 18 19  2  0
 19 20  1  0
 20 21  1  0
 21 22  1  0
 22 23  2  0
 22 24  1  0
 21 25  2  0
 17 26  1  0
 26 27  2  0
 27  8  1  0
 27 14  1  0
 25 18  1  0
  1 28  1  0
  1 29  1  0
  1 30  1  0
  3 31  1  0
  3 32  1  0
  3 33  1  0
  4 34  1  0
  4 35  1  0
  4 36  1  0
 11 37  1  0
 11 38  1  0
 13 39  1  0
 15 40  1  0
 16 41  1  0
 19 42  1  0
 26 43  1  0
M  CHG  1  24  -1
M  END
>  <UniqueID>  (45) 
44

>  <SMILES>  (45) 
CC(C)(C)OC(=O)n1c(C(N)=O)cc2ccc(-c3coc(C(=O)[O-])n3)cc21

>  <Energy>  (45) 
110.99129154916965

>  <Genealogy>  (45) 
CC(C)(C)OC(=O)n1c(C(N)=O)cc2ccc(-c3coc(C(=O)[O-])n3)cc21 (protonated)
CC(C)(C)OC(=O)n1c(C(N)=O)cc2ccc(-c3coc(C(=O)[O-])n3)cc21 (3D coordinates assigned)
CC(C)(C)OC(=O)n1c(C(N)=O)cc2ccc(-c3coc(C(=O)[O-])n3)cc21 (optimized conformer: 110.99129154916965 kcal/mol)

>  <smiles>  (45) 
CC(C)(C)OC(=O)n1c(C(N)=O)cc2ccc(-c3coc(C(=O)O)n3)cc21

>  <score_type>  (45) 
oracle

>  <origin>  (45) 
adg

>  <m_score__min__energy>  (45) 
-7.8200000000000003

>  <m_primary>  (45) 
energy

$$$$
48:0
     RDKit          3D

 48 50  0  0  0  0  0  0  0  0999 V2000
  138.6920  158.2630  131.5060 C   0  0  0  0  0  0  0  0  0  0  0  0
  139.8210  157.7640  132.2110 O   0  0  0  0  0  0  0  0  0  0  0  0
  140.1230  158.0600  133.5500 C   0  0  0  0  0  0  0  0  0  0  0  0
  139.1850  157.8680  134.5850 C   0  0  0  0  0  0  0  0  0  0  0  0
  139.5200  158.1650  135.9090 C   0  0  0  0  0  0  0  0  0  0  0  0
  140.7880  158.6590  136.2170 C   0  0  0  0  0  0  0  0  0  0  0  0
  141.7260  158.8580  135.2030 C   0  0  0  0  0  0  0  0  0  0  0  0
  141.4070  158.5620  133.8630 C   0  0  0  0  0  0  0  0  0  0  0  0
  142.4080  158.7170  132.8320 N   0  0  0  0  0  0  0  0  0  0  0  0
  143.6650  158.1740  133.2850 C   0  0  0  0  0  0  0  0  0  0  0  0
  144.8680  158.9180  133.1410 C   0  0  0  0  0  0  0  0  0  0  0  0
  146.0990  158.3810  133.5530 C   0  0  0  0  0  0  0  0  0  0  0  0
  146.1030  157.1000  134.0980 C   0  0  0  0  0  0  0  0  0  0  0  0
  147.1510  156.3280  134.5530 C   0  0  0  0  0  0  0  0  0  0  0  0
  146.5730  155.1220  134.9530 C   0  0  0  0  0  0  0  0  0  0  0  0
  147.3400  153.9660  135.4620 C   0  0  0  0  0  0  0  0  0  0  0  0
  146.9770  153.3640  136.7020 N   0  0  0  0  0  0  0  0  0  0  0  0
  148.3130  153.4990  134.8130 O   0  0  0  0  0  0  0  0  0  0  0  0
  145.2270  155.1510  134.7500 N   0  0  0  0  0  0  0  0  0  0  0  0
  144.2760  154.1050  135.0010 C   0  0  0  0  0  0  0  0  0  0  0  0
  144.0800  153.7250  136.1880 O   0  0  0  0  0  0  0  0  0  0  0  0
  143.5440  153.4970  133.9150 N   0  0  0  0  0  0  0  0  0  0  0  0
  144.2300  153.2030  132.6520 C   0  0  0  0  0  0  0  0  0  0  0  0
  142.1430  153.1010  134.1040 C   0  0  0  0  0  0  0  0  0  0  0  0
  141.2350  154.2280  133.7270 C   0  0  0  0  0  0  0  0  0  0  0  0
  140.5090  154.1400  132.7030 O   0  0  0  0  0  0  0  0  0  0  0  0
  141.2110  155.3900  134.4910 O   0  0  0  0  0  0  0  0  0  0  0  0
  144.9540  156.3660  134.2360 C   0  0  0  0  0  0  0  0  0  0  0  0
  143.7110  156.8820  133.8610 C   0  0  0  0  0  0  0  0  0  0  0  0
  137.9303  158.5996  132.2247 H   0  0  0  0  0  0  0  0  0  0  0  0
  138.9991  159.1092  130.8739 H   0  0  0  0  0  0  0  0  0  0  0  0
  138.2729  157.4663  130.8739 H   0  0  0  0  0  0  0  0  0  0  0  0
  138.1825  157.4817  134.3488 H   0  0  0  0  0  0  0  0  0  0  0  0
  138.7824  158.0089  136.7100 H   0  0  0  0  0  0  0  0  0  0  0  0
  141.0486  158.8918  137.2600 H   0  0  0  0  0  0  0  0  0  0  0  0
  142.7233  159.2495  135.4522 H   0  0  0  0  0  0  0  0  0  0  0  0
  142.0860  158.2460  131.9560 H   0  0  0  0  0  0  0  0  0  0  0  0
  142.5440  159.7280  132.6000 H   0  0  0  0  0  0  0  0  0  0  0  0
  144.8344  159.9260  132.7018 H   0  0  0  0  0  0  0  0  0  0  0  0
  147.0314  158.9552  133.4481 H   0  0  0  0  0  0  0  0  0  0  0  0
  148.2152  156.6036  134.5923 H   0  0  0  0  0  0  0  0  0  0  0  0
  146.0250  153.5070  137.1080 H   0  0  0  0  0  0  0  0  0  0  0  0
  145.2221  152.7778  132.8639 H   0  0  0  0  0  0  0  0  0  0  0  0
  143.6373  152.4798  132.0725 H   0  0  0  0  0  0  0  0  0  0  0  0
  144.3449  154.1309  132.0725 H   0  0  0  0  0  0  0  0  0  0  0  0
  141.9228  152.2290  133.4707 H   0  0  0  0  0  0  0  0  0  0  0  0
  141.9805  152.8461  135.1617 H   0  0  0  0  0  0  0  0  0  0  0  0
  142.7906  156.2984  134.0098 H   0  0  0  0  0  0  0  0  0  0  0  0
  1  2  1  0
  2  3  1  0
  3  4  2  0
  4  5  1  0
  5  6  2  0
  6  7  1  0
  7  8  2  0
  8  9  1  0
  9 10  1  0
 10 11  2  0
 11 12  1  0
 12 13  2  0
 13 14  1  0
 14 15  2  0
 15 16  1  0
 16 17  1  0
 16 18  2  0
 15 19  1  0
 19 20  1  0
 20 21  2  0
 20 22  1  0
 22 23  1  0
 22 24  1  0
 24 25  1  0
 25 26  2  0
 25 27  1  0
 19 28  1  0
 28 29  2  0
  8  3  1  0
 29 10  1  0
 28 13  1  0
  1 30  1  0
  1 31  1  0
  1 32  1  0
  4 33  1  0
  5 34  1  0
  6 35  1  0
  7 36  1  0
  9 37  1  0
  9 38  1  0
 11 39  1  0
 12 40  1  0
 14 41  1  0
 17 42  1  0
 23 43  1  0
 23 44  1  0
 23 45  1  0
 24 46  1  0
 24 47  1  0
 29 48  1  0
M  CHG  3   9   1  17  -1  27  -1
M  END
>  <UniqueID>  (46) 
45

>  <SMILES>  (46) 
COc1ccccc1[NH2+]c1ccc2cc(C([NH-])=O)n(C(=O)N(C)CC(=O)[O-])c2c1

>  <Energy>  (46) 
87.14523224453364

>  <Genealogy>  (46) 
COc1ccccc1[NH2+]c1ccc2cc(C([NH-])=O)n(C(=O)N(C)CC(=O)[O-])c2c1 (protonated)
COc1ccccc1[NH2+]c1ccc2cc(C([NH-])=O)n(C(=O)N(C)CC(=O)[O-])c2c1 (3D coordinates assigned)
COc1ccccc1[NH2+]c1ccc2cc(C([NH-])=O)n(C(=O)N(C)CC(=O)[O-])c2c1 (optimized conformer: 87.14523224453364 kcal/mol)

>  <smiles>  (46) 
COc1ccccc1Nc1ccc2cc(C(N)=O)n(C(=O)N(C)CC(=O)O)c2c1

>  <score_type>  (46) 
oracle

>  <origin>  (46) 
adg

>  <m_score__min__energy>  (46) 
-6.71

>  <m_primary>  (46) 
energy

$$$$
49:0
     RDKit          3D

 30 31  0  0  0  0  0  0  0  0999 V2000
  141.2830  157.7870  134.9800 C   0  0  0  0  0  0  0  0  0  0  0  0
  142.3130  158.2950  134.6130 C   0  0  0  0  0  0  0  0  0  0  0  0
  143.5430  158.9010  134.1760 C   0  0  0  0  0  0  0  0  0  0  0  0
  143.6480  160.3100  134.1060 C   0  0  0  0  0  0  0  0  0  0  0  0
  144.8490  160.9140  133.6940 C   0  0  0  0  0  0  0  0  0  0  0  0
  145.9130  160.0830  133.3530 C   0  0  0  0  0  0  0  0  0  0  0  0
  147.1910  160.4000  132.9520 C   0  0  0  0  0  0  0  0  0  0  0  0
  147.8340  159.1790  132.7620 C   0  0  0  0  0  0  0  0  0  0  0  0
  149.2130  159.0570  132.2480 C   0  0  0  0  0  0  0  0  0  0  0  0
  149.7430  157.7900  131.8610 N   0  0  0  0  0  0  0  0  0  0  0  0
  149.9200  160.0890  132.1040 O   0  0  0  0  0  0  0  0  0  0  0  0
  146.9880  158.1450  133.0410 N   0  0  0  0  0  0  0  0  0  0  0  0
  147.2940  156.7440  133.0650 C   0  0  0  0  0  0  0  0  0  0  0  0
  147.2540  156.0730  131.9980 O   0  0  0  0  0  0  0  0  0  0  0  0
  147.6170  156.1250  134.2780 O   0  0  0  0  0  0  0  0  0  0  0  0
  146.7030  155.3240  135.0210 C   0  0  0  0  0  0  0  0  0  0  0  0
  147.6010  154.0550  135.9660 P   0  0  0  0  0  0  0  0  0  0  0  0
  148.4740  153.2550  135.0270 O   0  0  0  0  0  0  0  0  0  0  0  0
  148.5730  154.8060  137.1290 O   0  0  0  0  0  0  0  0  0  0  0  0
  146.5090  153.0160  136.7340 O   0  0  0  0  0  0  0  0  0  0  0  0
  145.8160  158.7160  133.3990 C   0  0  0  0  0  0  0  0  0  0  0  0
  144.6390  158.0880  133.8240 C   0  0  0  0  0  0  0  0  0  0  0  0
  140.3433  157.3235  135.3148 H   0  0  0  0  0  0  0  0  0  0  0  0
  142.7851  160.9367  134.3755 H   0  0  0  0  0  0  0  0  0  0  0  0
  144.9450  162.0086  133.6427 H   0  0  0  0  0  0  0  0  0  0  0  0
  147.6150  161.4052  132.8113 H   0  0  0  0  0  0  0  0  0  0  0  0
  149.1240  157.0490  131.4650 H   0  0  0  0  0  0  0  0  0  0  0  0
  146.1411  155.9647  135.7165 H   0  0  0  0  0  0  0  0  0  0  0  0
  146.0116  154.8288  134.3233 H   0  0  0  0  0  0  0  0  0  0  0  0
  144.5717  156.9916  133.8815 H   0  0  0  0  0  0  0  0  0  0  0  0
  1  2  3  0
  2  3  1  0
  3  4  2  0
  4  5  1  0
  5  6  2  0
  6  7  1  0
  7  8  2  0
  8  9  1  0
  9 10  1  0
  9 11  2  0
  8 12  1  0
 12 13  1  0
 13 14  2  0
 13 15  1  0
 15 16  1  0
 16 17  1  0
 17 18  2  0
 17 19  1  0
 17 20  1  0
 12 21  1  0
 21 22  2  0
 22  3  1  0
 21  6  1  0
  1 23  1  0
  4 24  1  0
  5 25  1  0
  7 26  1  0
 10 27  1  0
 16 28  1  0
 16 29  1  0
 22 30  1  0
M  CHG  3  10  -1  19  -1  20  -1
M  END
>  <UniqueID>  (47) 
46

>  <SMILES>  (47) 
C#Cc1ccc2cc(C([NH-])=O)n(C(=O)OCP(=O)([O-])[O-])c2c1

>  <Energy>  (47) 
62.99031668962972

>  <Genealogy>  (47) 
C#Cc1ccc2cc(C([NH-])=O)n(C(=O)OCP(=O)([O-])[O-])c2c1 (protonated)
C#Cc1ccc2cc(C([NH-])=O)n(C(=O)OCP(=O)([O-])[O-])c2c1 (3D coordinates assigned)
C#Cc1ccc2cc(C([NH-])=O)n(C(=O)OCP(=O)([O-])[O-])c2c1 (optimized conformer: 62.99031668962972 kcal/mol)

>  <smiles>  (47) 
C#Cc1ccc2cc(C(N)=O)n(C(=O)OCP(=O)(O)O)c2c1

>  <score_type>  (47) 
oracle

>  <origin>  (47) 
adg

>  <m_score__min__energy>  (47) 
-6.6299999999999999

>  <m_primary>  (47) 
energy

$$$$
50:0
     RDKit          3D

 44 46  0  0  0  0  0  0  0  0999 V2000
  149.0820  158.0140  131.4490 N   0  0  0  0  0  0  0  0  0  0  0  0
  148.6650  158.7920  132.5680 C   0  0  0  0  0  0  0  0  0  0  0  0
  149.5340  159.3670  133.2770 O   0  0  0  0  0  0  0  0  0  0  0  0
  147.2380  158.8880  132.9380 C   0  0  0  0  0  0  0  0  0  0  0  0
  146.5330  160.0900  132.9700 C   0  0  0  0  0  0  0  0  0  0  0  0
  145.2830  159.7670  133.4480 C   0  0  0  0  0  0  0  0  0  0  0  0
  144.1750  160.5760  133.6710 C   0  0  0  0  0  0  0  0  0  0  0  0
  142.9990  159.9700  134.1420 C   0  0  0  0  0  0  0  0  0  0  0  0
  142.9470  158.5700  134.3790 C   0  0  0  0  0  0  0  0  0  0  0  0
  141.7280  157.9530  134.8420 N   0  0  0  0  0  0  0  0  0  0  0  0
  140.9180  158.6440  135.8640 C   0  0  0  0  0  0  0  0  0  0  0  0
  141.3060  158.2730  137.3070 C   0  0  0  0  0  0  0  0  0  0  0  0
  141.2750  156.7550  137.5790 C   0  0  0  0  0  0  0  0  0  0  0  0
  142.0750  155.9750  136.6220 N   0  0  0  0  0  0  0  0  0  0  0  0
  141.3000  155.5620  135.4420 C   0  0  0  0  0  0  0  0  0  0  0  0
  141.3320  156.6280  134.3280 C   0  0  0  0  0  0  0  0  0  0  0  0
  144.0970  157.7830  134.1330 C   0  0  0  0  0  0  0  0  0  0  0  0
  145.2580  158.4170  133.6810 C   0  0  0  0  0  0  0  0  0  0  0  0
  146.4510  157.8610  133.3700 N   0  0  0  0  0  0  0  0  0  0  0  0
  146.7710  156.4630  133.4120 C   0  0  0  0  0  0  0  0  0  0  0  0
  147.3060  155.9100  132.4120 O   0  0  0  0  0  0  0  0  0  0  0  0
  146.4640  155.7150  134.5550 O   0  0  0  0  0  0  0  0  0  0  0  0
  145.7230  154.4980  134.5190 C   0  0  0  0  0  0  0  0  0  0  0  0
  145.4210  154.0330  135.9080 C   0  0  0  0  0  0  0  0  0  0  0  0
  144.2910  154.2490  136.4180 O   0  0  0  0  0  0  0  0  0  0  0  0
  146.3800  153.3350  136.6290 O   0  0  0  0  0  0  0  0  0  0  0  0
  148.5420  157.1730  131.1480 H   0  0  0  0  0  0  0  0  0  0  0  0
  146.8979  161.0852  132.6758 H   0  0  0  0  0  0  0  0  0  0  0  0
  144.2180  161.6591  133.4841 H   0  0  0  0  0  0  0  0  0  0  0  0
  142.1075  160.5865  134.3297 H   0  0  0  0  0  0  0  0  0  0  0  0
  141.0475  159.7289  135.7363 H   0  0  0  0  0  0  0  0  0  0  0  0
  139.8742  158.3292  135.7178 H   0  0  0  0  0  0  0  0  0  0  0  0
  142.3246  158.6410  137.4997 H   0  0  0  0  0  0  0  0  0  0  0  0
  140.5632  158.7372  137.9724 H   0  0  0  0  0  0  0  0  0  0  0  0
  141.6668  156.5737  138.5907 H   0  0  0  0  0  0  0  0  0  0  0  0
  140.2304  156.4268  137.4735 H   0  0  0  0  0  0  0  0  0  0  0  0
  142.3940  155.1080  137.1150 H   0  0  0  0  0  0  0  0  0  0  0  0
  141.7226  154.6253  135.0495 H   0  0  0  0  0  0  0  0  0  0  0  0
  140.2536  155.4267  135.7530 H   0  0  0  0  0  0  0  0  0  0  0  0
  142.0531  156.3157  133.5583 H   0  0  0  0  0  0  0  0  0  0  0  0
  140.3176  156.7145  133.9114 H   0  0  0  0  0  0  0  0  0  0  0  0
  144.0778  156.6950  134.2941 H   0  0  0  0  0  0  0  0  0  0  0  0
  144.7794  154.6636  133.9785 H   0  0  0  0  0  0  0  0  0  0  0  0
  146.3210  153.7300  134.0066 H   0  0  0  0  0  0  0  0  0  0  0  0
  1  2  1  0
  2  3  2  0
  2  4  1  0
  4  5  2  0
  5  6  1  0
  6  7  2  0
  7  8  1  0
  8  9  2  0
  9 10  1  0
 10 11  1  0
 11 12  1  0
 12 13  1  0
 13 14  1  0
 14 15  1  0
 15 16  1  0
  9 17  1  0
 17 18  2  0
 18 19  1  0
 19 20  1  0
 20 21  2  0
 20 22  1  0
 22 23  1  0
 23 24  1  0
 24 25  2  0
 24 26  1  0
 19  4  1  0
 18  6  1  0
 16 10  1  0
  1 27  1  0
  5 28  1  0
  7 29  1  0
  8 30  1  0
 11 31  1  0
 11 32  1  0
 12 33  1  0
 12 34  1  0
 13 35  1  0
 13 36  1  0
 14 37  1  0
 15 38  1  0
 15 39  1  0
 16 40  1  0
 16 41  1  0
 17 42  1  0
 23 43  1  0
 23 44  1  0
M  CHG  2   1  -1  26  -1
M  END
>  <UniqueID>  (48) 
47

>  <SMILES>  (48) 
[NH-]C(=O)c1cc2ccc(N3CCCNCC3)cc2n1C(=O)OCC(=O)[O-]

>  <Energy>  (48) 
91.91633380238014

>  <Genealogy>  (48) 
[NH-]C(=O)c1cc2ccc(N3CCCNCC3)cc2n1C(=O)OCC(=O)[O-] (protonated)
[NH-]C(=O)c1cc2ccc(N3CCCNCC3)cc2n1C(=O)OCC(=O)[O-] (3D coordinates assigned)
[NH-]C(=O)c1cc2ccc(N3CCCNCC3)cc2n1C(=O)OCC(=O)[O-] (nonaromatic ring conformer: 91.91633380238014 kcal/mol)

>  <smiles>  (48) 
NC(=O)c1cc2ccc(N3CCCNCC3)cc2n1C(=O)OCC(=O)O

>  <score_type>  (48) 
oracle

>  <origin>  (48) 
adg

>  <m_score__min__energy>  (48) 
-5.6500000000000004

>  <m_primary>  (48) 
energy

$$$$
51:0
     RDKit          3D

 42 43  0  0  0  0  0  0  0  0999 V2000
  149.8130  151.6470  131.8200 C   0  0  0  0  0  0  0  0  0  0  0  0
  149.0490  152.8200  131.9990 O   0  0  0  0  0  0  0  0  0  0  0  0
  148.0710  152.6240  133.0040 C   0  0  0  0  0  0  0  0  0  0  0  0
  147.4010  153.9530  133.3710 C   0  0  0  0  0  0  0  0  0  0  0  0
  147.7650  155.0080  132.4220 N   0  0  0  0  0  0  0  0  0  0  0  0
  147.7000  156.4210  132.7000 C   0  0  0  0  0  0  0  0  0  0  0  0
  148.8940  157.1840  132.6640 C   0  0  0  0  0  0  0  0  0  0  0  0
  148.8760  158.5660  132.9170 C   0  0  0  0  0  0  0  0  0  0  0  0
  147.6530  159.1590  133.2110 C   0  0  0  0  0  0  0  0  0  0  0  0
  147.3470  160.4740  133.4780 C   0  0  0  0  0  0  0  0  0  0  0  0
  145.9710  160.4960  133.7010 C   0  0  0  0  0  0  0  0  0  0  0  0
  145.2350  161.7090  134.1150 C   0  0  0  0  0  0  0  0  0  0  0  0
  145.8890  162.7610  134.8190 N   0  0  0  0  0  0  0  0  0  0  0  0
  144.0220  161.8390  133.8000 O   0  0  0  0  0  0  0  0  0  0  0  0
  145.4470  159.2440  133.5650 N   0  0  0  0  0  0  0  0  0  0  0  0
  144.0710  158.8440  133.6540 C   0  0  0  0  0  0  0  0  0  0  0  0
  143.5310  158.2200  132.7010 O   0  0  0  0  0  0  0  0  0  0  0  0
  143.3470  159.1230  134.8190 O   0  0  0  0  0  0  0  0  0  0  0  0
  141.9260  159.0190  134.9100 C   0  0  2  0  0  0  0  0  0  0  0  0
  141.2920  160.1270  134.0760 C   0  0  0  0  0  0  0  0  0  0  0  0
  141.4880  159.1400  136.3410 C   0  0  0  0  0  0  0  0  0  0  0  0
  141.8410  158.2770  137.1870 O   0  0  0  0  0  0  0  0  0  0  0  0
  140.6600  160.1860  136.7320 O   0  0  0  0  0  0  0  0  0  0  0  0
  146.4900  158.4390  133.2670 C   0  0  0  0  0  0  0  0  0  0  0  0
  146.4740  157.0660  132.9920 C   0  0  0  0  0  0  0  0  0  0  0  0
  150.0833  151.2320  132.8022 H   0  0  0  0  0  0  0  0  0  0  0  0
  149.2230  150.9072  131.2591 H   0  0  0  0  0  0  0  0  0  0  0  0
  150.7282  151.8875  131.2591 H   0  0  0  0  0  0  0  0  0  0  0  0
  147.3073  151.9242  132.6337 H   0  0  0  0  0  0  0  0  0  0  0  0
  148.5602  152.2141  133.8999 H   0  0  0  0  0  0  0  0  0  0  0  0
  146.3091  153.8201  133.3588 H   0  0  0  0  0  0  0  0  0  0  0  0
  147.7434  154.2515  134.3728 H   0  0  0  0  0  0  0  0  0  0  0  0
  148.0780  154.7030  131.4720 H   0  0  0  0  0  0  0  0  0  0  0  0
  149.8482  156.6872  132.4347 H   0  0  0  0  0  0  0  0  0  0  0  0
  149.8009  159.1606  132.8836 H   0  0  0  0  0  0  0  0  0  0  0  0
  148.0410  161.3269  133.5089 H   0  0  0  0  0  0  0  0  0  0  0  0
  146.9130  162.9260  134.7080 H   0  0  0  0  0  0  0  0  0  0  0  0
  141.6053  158.0384  134.5285 H   0  0  0  0  0  0  0  0  0  0  0  0
  140.8579  160.8858  134.7437 H   0  0  0  0  0  0  0  0  0  0  0  0
  142.0600  160.5933  133.4413 H   0  0  0  0  0  0  0  0  0  0  0  0
  140.5009  159.7012  133.4413 H   0  0  0  0  0  0  0  0  0  0  0  0
  145.5301  156.5013  133.0026 H   0  0  0  0  0  0  0  0  0  0  0  0
  1  2  1  0
  2  3  1  0
  3  4  1  0
  4  5  1  0
  5  6  1  0
  6  7  2  0
  7  8  1  0
  8  9  2  0
  9 10  1  0
 10 11  2  0
 11 12  1  0
 12 13  1  0
 12 14  2  0
 11 15  1  0
 15 16  1  0
 16 17  2  0
 16 18  1  0
 18 19  1  0
 19 20  1  0
 19 21  1  0
 21 22  2  0
 21 23  1  0
 15 24  1  0
 24 25  2  0
 25  6  1  0
 24  9  1  0
  1 26  1  0
  1 27  1  0
  1 28  1  0
  3 29  1  0
  3 30  1  0
  4 31  1  0
  4 32  1  0
  5 33  1  0
  7 34  1  0
  8 35  1  0
 10 36  1  0
 13 37  1  0
 19 38  1  6
 20 39  1  0
 20 40  1  0
 20 41  1  0
 25 42  1  0
M  CHG  2  13  -1  23  -1
M  END
>  <UniqueID>  (49) 
48

>  <SMILES>  (49) 
COCCNc1ccc2cc(C([NH-])=O)n(C(=O)O[C@H](C)C(=O)[O-])c2c1

>  <Energy>  (49) 
75.49129739533285

>  <Genealogy>  (49) 
COCCNc1ccc2cc(C([NH-])=O)n(C(=O)OC(C)C(=O)[O-])c2c1 (protonated)
COCCNc1ccc2cc(C([NH-])=O)n(C(=O)O[C@H](C)C(=O)[O-])c2c1 (chirality)
COCCNc1ccc2cc(C([NH-])=O)n(C(=O)O[C@H](C)C(=O)[O-])c2c1 (3D coordinates assigned)
COCCNc1ccc2cc(C([NH-])=O)n(C(=O)O[C@H](C)C(=O)[O-])c2c1 (optimized conformer: 75.49129739533285 kcal/mol)

>  <smiles>  (49) 
COCCNc1ccc2cc(C(N)=O)n(C(=O)OC(C)C(=O)O)c2c1

>  <score_type>  (49) 
oracle

>  <origin>  (49) 
adg

>  <m_score__min__energy>  (49) 
-6.8200000000000003

>  <m_primary>  (49) 
energy

$$$$
52:0
     RDKit          3D

 44 45  0  0  0  0  0  0  0  0999 V2000
  141.3150  155.6690  138.3910 C   0  0  0  0  0  0  0  0  0  0  0  0
  141.4030  157.1320  138.3250 N   0  0  0  0  0  0  0  0  0  0  0  0
  142.1120  157.8720  139.3750 C   0  0  0  0  0  0  0  0  0  0  0  0
  140.7920  157.8660  137.2410 C   0  0  0  0  0  0  0  0  0  0  0  0
  140.8190  159.1270  137.2450 O   0  0  0  0  0  0  0  0  0  0  0  0
  140.1070  157.1700  136.1010 C   0  0  0  0  0  0  0  0  0  0  0  0
  141.0260  156.9880  135.0300 O   0  0  0  0  0  0  0  0  0  0  0  0
  140.8980  157.6460  133.8040 C   0  0  0  0  0  0  0  0  0  0  0  0
  140.1330  158.6410  133.6830 O   0  0  0  0  0  0  0  0  0  0  0  0
  141.6610  157.1460  132.6230 C   0  0  0  0  0  0  0  0  0  0  0  0
  143.0130  156.9200  133.0070 O   0  0  0  0  0  0  0  0  0  0  0  0
  143.6250  157.5810  134.0740 C   0  0  0  0  0  0  0  0  0  0  0  0
  143.5040  157.1370  135.2480 O   0  0  0  0  0  0  0  0  0  0  0  0
  144.4090  158.7600  133.8250 N   0  0  0  0  0  0  0  0  0  0  0  0
  144.0140  160.0620  133.9250 C   0  0  0  0  0  0  0  0  0  0  0  0
  142.6340  160.5260  134.1910 C   0  0  0  0  0  0  0  0  0  0  0  0
  141.7760  159.7930  135.0680 N   0  0  0  0  0  0  0  0  0  0  0  0
  142.2110  161.5910  133.6700 O   0  0  0  0  0  0  0  0  0  0  0  0
  145.0760  160.9180  133.6380 C   0  0  0  0  0  0  0  0  0  0  0  0
  146.1410  160.0950  133.3520 C   0  0  0  0  0  0  0  0  0  0  0  0
  147.4470  160.4160  132.9950 C   0  0  0  0  0  0  0  0  0  0  0  0
  148.3450  159.3600  132.7670 C   0  0  0  0  0  0  0  0  0  0  0  0
  147.9260  158.0160  132.9110 C   0  0  0  0  0  0  0  0  0  0  0  0
  148.8520  156.9490  132.6810 N   0  0  0  0  0  0  0  0  0  0  0  0
  146.5960  157.7270  133.2780 C   0  0  0  0  0  0  0  0  0  0  0  0
  145.7140  158.7970  133.4740 C   0  0  0  0  0  0  0  0  0  0  0  0
  141.2958  155.3500  139.4435 H   0  0  0  0  0  0  0  0  0  0  0  0
  140.3951  155.3340  137.8895 H   0  0  0  0  0  0  0  0  0  0  0  0
  142.1881  155.2262  137.8895 H   0  0  0  0  0  0  0  0  0  0  0  0
  141.7757  157.5210  140.3618 H   0  0  0  0  0  0  0  0  0  0  0  0
  143.1944  157.7035  139.2752 H   0  0  0  0  0  0  0  0  0  0  0  0
  141.8974  158.9462  139.2752 H   0  0  0  0  0  0  0  0  0  0  0  0
  139.7397  156.1896  136.4385 H   0  0  0  0  0  0  0  0  0  0  0  0
  139.2607  157.7819  135.7555 H   0  0  0  0  0  0  0  0  0  0  0  0
  141.2161  156.2047  132.2680 H   0  0  0  0  0  0  0  0  0  0  0  0
  141.6237  157.8904  131.8140 H   0  0  0  0  0  0  0  0  0  0  0  0
  142.0710  158.8770  135.4740 H   0  0  0  0  0  0  0  0  0  0  0  0
  140.8190  160.1500  135.2840 H   0  0  0  0  0  0  0  0  0  0  0  0
  145.0650  162.0179  133.6398 H   0  0  0  0  0  0  0  0  0  0  0  0
  147.7663  161.4638  132.8944 H   0  0  0  0  0  0  0  0  0  0  0  0
  149.3823  159.5796  132.4742 H   0  0  0  0  0  0  0  0  0  0  0  0
  149.6220  156.7560  133.3580 H   0  0  0  0  0  0  0  0  0  0  0  0
  148.7770  156.3510  131.8280 H   0  0  0  0  0  0  0  0  0  0  0  0
  146.2596  156.6877  133.4071 H   0  0  0  0  0  0  0  0  0  0  0  0
  1  2  1  0
  2  3  1  0
  2  4  1  0
  4  5  2  0
  4  6  1  0
  6  7  1  0
  7  8  1  0
  8  9  2  0
  8 10  1  0
 10 11  1  0
 11 12  1  0
 12 13  2  0
 12 14  1  0
 14 15  1  0
 15 16  1  0
 16 17  1  0
 16 18  2  0
 15 19  2  0
 19 20  1  0
 20 21  2  0
 21 22  1  0
 22 23  2  0
 23 24  1  0
 23 25  1  0
 25 26  2  0
 26 14  1  0
 26 20  1  0
  1 27  1  0
  1 28  1  0
  1 29  1  0
  3 30  1  0
  3 31  1  0
  3 32  1  0
  6 33  1  0
  6 34  1  0
 10 35  1  0
 10 36  1  0
 17 37  1  0
 17 38  1  0
 19 39  1  0
 21 40  1  0
 22 41  1  0
 24 42  1  0
 24 43  1  0
 25 44  1  0
M  END
>  <UniqueID>  (50) 
49

>  <SMILES>  (50) 
CN(C)C(=O)COC(=O)COC(=O)n1c(C(N)=O)cc2ccc(N)cc21

>  <Energy>  (50) 
71.01742895597027

>  <Genealogy>  (50) 
CN(C)C(=O)COC(=O)COC(=O)n1c(C(N)=O)cc2ccc(N)cc21 (3D coordinates assigned)
CN(C)C(=O)COC(=O)COC(=O)n1c(C(N)=O)cc2ccc(N)cc21 (optimized conformer: 71.01742895597027 kcal/mol)

>  <smiles>  (50) 
CN(C)C(=O)COC(=O)COC(=O)n1c(C(N)=O)cc2ccc(N)cc21

>  <score_type>  (50) 
oracle

>  <origin>  (50) 
adg

>  <m_score__min__energy>  (50) 
-6.4400000000000004

>  <m_primary>  (50) 
energy

$$$$
53:0
     RDKit          3D

 49 50  0  0  0  0  0  0  0  0999 V2000
  147.7310  154.5590  134.7220 C   0  0  0  0  0  0  0  0  0  0  0  0
  147.6890  154.0130  133.2750 C   0  0  0  0  0  0  0  0  0  0  0  0
  146.4070  153.1880  133.0530 C   0  0  0  0  0  0  0  0  0  0  0  0
  148.9270  153.1030  133.0490 C   0  0  0  0  0  0  0  0  0  0  0  0
  149.6020  153.4210  131.8580 O   0  0  0  0  0  0  0  0  0  0  0  0
  147.7390  155.1120  132.2850 N   0  0  0  0  0  0  0  0  0  0  0  0
  147.6310  156.5190  132.5740 C   0  0  0  0  0  0  0  0  0  0  0  0
  148.7730  157.3590  132.6320 C   0  0  0  0  0  0  0  0  0  0  0  0
  148.6480  158.7210  132.9520 C   0  0  0  0  0  0  0  0  0  0  0  0
  147.3760  159.2160  133.2160 C   0  0  0  0  0  0  0  0  0  0  0  0
  146.9740  160.4810  133.5790 C   0  0  0  0  0  0  0  0  0  0  0  0
  145.5920  160.4000  133.7370 C   0  0  0  0  0  0  0  0  0  0  0  0
  144.7380  161.5640  134.0500 C   0  0  0  0  0  0  0  0  0  0  0  0
  143.3490  161.5300  133.7320 N   0  0  0  0  0  0  0  0  0  0  0  0
  145.2130  162.5750  134.6290 O   0  0  0  0  0  0  0  0  0  0  0  0
  145.1570  159.1320  133.4870 N   0  0  0  0  0  0  0  0  0  0  0  0
  143.8200  158.6230  133.6170 C   0  0  0  0  0  0  0  0  0  0  0  0
  143.3170  157.9450  132.6810 O   0  0  0  0  0  0  0  0  0  0  0  0
  143.1020  158.8670  134.7970 O   0  0  0  0  0  0  0  0  0  0  0  0
  141.6890  158.6960  134.9840 C   0  0  0  0  0  0  0  0  0  0  0  0
  141.3260  157.2000  135.0330 C   0  0  0  0  0  0  0  0  0  0  0  0
  140.9020  159.4110  133.8690 C   0  0  0  0  0  0  0  0  0  0  0  0
  141.3300  159.3380  136.3320 C   0  0  0  0  0  0  0  0  0  0  0  0
  146.2600  158.4200  133.1680 C   0  0  0  0  0  0  0  0  0  0  0  0
  146.3590  157.0570  132.8700 C   0  0  0  0  0  0  0  0  0  0  0  0
  147.6666  153.7213  135.4320 H   0  0  0  0  0  0  0  0  0  0  0  0
  148.6737  155.1031  134.8814 H   0  0  0  0  0  0  0  0  0  0  0  0
  146.8827  155.2409  134.8814 H   0  0  0  0  0  0  0  0  0  0  0  0
  145.9762  152.9108  134.0264 H   0  0  0  0  0  0  0  0  0  0  0  0
  145.6787  153.7874  132.4870 H   0  0  0  0  0  0  0  0  0  0  0  0
  146.6507  152.2768  132.4870 H   0  0  0  0  0  0  0  0  0  0  0  0
  149.6195  153.2286  133.8944 H   0  0  0  0  0  0  0  0  0  0  0  0
  148.5761  152.0632  132.9742 H   0  0  0  0  0  0  0  0  0  0  0  0
  150.5090  153.0210  131.9220 H   0  0  0  0  0  0  0  0  0  0  0  0
  148.0790  154.8790  131.3230 H   0  0  0  0  0  0  0  0  0  0  0  0
  149.7680  156.9387  132.4239 H   0  0  0  0  0  0  0  0  0  0  0  0
  149.5304  159.3765  132.9925 H   0  0  0  0  0  0  0  0  0  0  0  0
  147.6093  161.3685  133.7156 H   0  0  0  0  0  0  0  0  0  0  0  0
  142.8630  160.6250  133.5440 H   0  0  0  0  0  0  0  0  0  0  0  0
  141.2474  156.8759  136.0812 H   0  0  0  0  0  0  0  0  0  0  0  0
  140.3629  157.0396  134.5264 H   0  0  0  0  0  0  0  0  0  0  0  0
  142.1085  156.6160  134.5264 H   0  0  0  0  0  0  0  0  0  0  0  0
  140.1592  160.0858  134.3194 H   0  0  0  0  0  0  0  0  0  0  0  0
  141.5964  159.9936  133.2458 H   0  0  0  0  0  0  0  0  0  0  0  0
  140.3885  158.6640  133.2458 H   0  0  0  0  0  0  0  0  0  0  0  0
  141.6886  158.6967  137.1506 H   0  0  0  0  0  0  0  0  0  0  0  0
  141.8060  160.3269  136.4055 H   0  0  0  0  0  0  0  0  0  0  0  0
  140.2382  159.4502  136.4055 H   0  0  0  0  0  0  0  0  0  0  0  0
  145.4643  156.4170  132.8662 H   0  0  0  0  0  0  0  0  0  0  0  0
  1  2  1  0
  2  3  1  0
  2  4  1  0
  4  5  1  0
  2  6  1  0
  6  7  1  0
  7  8  2  0
  8  9  1  0
  9 10  2  0
 10 11  1  0
 11 12  2  0
 12 13  1  0
 13 14  1  0
 13 15  2  0
 12 16  1  0
 16 17  1  0
 17 18  2  0
 17 19  1  0
 19 20  1  0
 20 21  1  0
 20 22  1  0
 20 23  1  0
 16 24  1  0
 24 25  2  0
 25  7  1  0
 24 10  1  0
  1 26  1  0
  1 27  1  0
  1 28  1  0
  3 29  1  0
  3 30  1  0
  3 31  1  0
  4 32  1  0
  4 33  1  0
  5 34  1  0
  6 35  1  0
  8 36  1  0
  9 37  1  0
 11 38  1  0
 14 39  1  0
 21 40  1  0
 21 41  1  0
 21 42  1  0
 22 43  1  0
 22 44  1  0
 22 45  1  0
 23 46  1  0
 23 47  1  0
 23 48  1  0
 25 49  1  0
M  CHG  1  14  -1
M  END
>  <UniqueID>  (51) 
50

>  <SMILES>  (51) 
CC(C)(CO)Nc1ccc2cc(C([NH-])=O)n(C(=O)OC(C)(C)C)c2c1

>  <Energy>  (51) 
86.19781002615673

>  <Genealogy>  (51) 
CC(C)(CO)Nc1ccc2cc(C([NH-])=O)n(C(=O)OC(C)(C)C)c2c1 (protonated)
CC(C)(CO)Nc1ccc2cc(C([NH-])=O)n(C(=O)OC(C)(C)C)c2c1 (3D coordinates assigned)
CC(C)(CO)Nc1ccc2cc(C([NH-])=O)n(C(=O)OC(C)(C)C)c2c1 (optimized conformer: 86.19781002615673 kcal/mol)

>  <smiles>  (51) 
CC(C)(CO)Nc1ccc2cc(C(N)=O)n(C(=O)OC(C)(C)C)c2c1

>  <score_type>  (51) 
oracle

>  <origin>  (51) 
adg

>  <m_score__min__energy>  (51) 
-7.5300000000000002

>  <m_primary>  (51) 
energy

$$$$
54:0
     RDKit          3D

 44 45  0  0  0  0  0  0  0  0999 V2000
  142.3380  149.4190  132.0410 C   0  0  0  0  0  0  0  0  0  0  0  0
  140.5280  149.6100  132.4720 Si  0  0  0  0  0  4  0  0  0  0  0  0
  139.5130  148.5490  131.3190 C   0  0  0  0  0  0  0  0  0  0  0  0
  140.2580  149.1010  134.0890 O   0  0  0  0  0  0  0  0  0  0  0  0
  140.0080  151.4020  132.2690 C   0  0  0  0  0  0  0  0  0  0  0  0
  141.1640  152.3020  132.2560 N   0  0  0  0  0  0  0  0  0  0  0  0
  141.4720  153.2000  133.3370 C   0  0  0  0  0  0  0  0  0  0  0  0
  142.3680  152.8340  134.3780 C   0  0  0  0  0  0  0  0  0  0  0  0
  142.6640  153.7300  135.4190 C   0  0  0  0  0  0  0  0  0  0  0  0
  142.0490  154.9770  135.4030 C   0  0  0  0  0  0  0  0  0  0  0  0
  142.1820  156.0390  136.2680 C   0  0  0  0  0  0  0  0  0  0  0  0
  141.3440  157.0280  135.7650 C   0  0  0  0  0  0  0  0  0  0  0  0
  141.1320  158.3290  136.4320 C   0  0  0  0  0  0  0  0  0  0  0  0
  139.8520  158.9620  136.4290 N   0  0  0  0  0  0  0  0  0  0  0  0
  142.0830  158.8620  137.0640 O   0  0  0  0  0  0  0  0  0  0  0  0
  140.7260  156.6060  134.6260 N   0  0  0  0  0  0  0  0  0  0  0  0
  139.8740  157.3690  133.7560 C   0  0  0  0  0  0  0  0  0  0  0  0
  138.6840  157.6180  134.0990 O   0  0  0  0  0  0  0  0  0  0  0  0
  140.3650  157.8370  132.5350 O   0  0  0  0  0  0  0  0  0  0  0  0
  139.8520  158.9990  131.8910 C   0  0  0  0  0  0  0  0  0  0  0  0
  138.5600  158.6540  131.1610 C   0  0  0  0  0  0  0  0  0  0  0  0
  137.6400  160.1330  130.7810 Cl  0  0  0  0  0  0  0  0  0  0  0  0
  141.1660  155.3430  134.4190 C   0  0  0  0  0  0  0  0  0  0  0  0
  140.8710  154.4790  133.3590 C   0  0  0  0  0  0  0  0  0  0  0  0
  142.9305  149.3565  132.9657 H   0  0  0  0  0  0  0  0  0  0  0  0
  142.4797  148.5009  131.4519 H   0  0  0  0  0  0  0  0  0  0  0  0
  142.6682  150.2873  131.4519 H   0  0  0  0  0  0  0  0  0  0  0  0
  138.8709  147.8778  131.9082 H   0  0  0  0  0  0  0  0  0  0  0  0
  138.8860  149.1929  130.6847 H   0  0  0  0  0  0  0  0  0  0  0  0
  140.1840  147.9512  130.6847 H   0  0  0  0  0  0  0  0  0  0  0  0
  140.3250  148.1140  134.0630 H   0  0  0  0  0  0  0  0  0  0  0  0
  139.4614  151.5096  131.3205 H   0  0  0  0  0  0  0  0  0  0  0  0
  139.3707  151.6737  133.1234 H   0  0  0  0  0  0  0  0  0  0  0  0
  141.7970  152.3050  131.4240 H   0  0  0  0  0  0  0  0  0  0  0  0
  142.8349  151.8381  134.3685 H   0  0  0  0  0  0  0  0  0  0  0  0
  143.3618  153.4531  136.2230 H   0  0  0  0  0  0  0  0  0  0  0  0
  142.8157  156.0938  137.1654 H   0  0  0  0  0  0  0  0  0  0  0  0
  139.0080  158.4690  136.0630 H   0  0  0  0  0  0  0  0  0  0  0  0
  139.7290  159.8990  136.8720 H   0  0  0  0  0  0  0  0  0  0  0  0
  139.6504  159.7753  132.6439 H   0  0  0  0  0  0  0  0  0  0  0  0
  140.5917  159.3701  131.1663 H   0  0  0  0  0  0  0  0  0  0  0  0
  138.8025  158.1287  130.2254 H   0  0  0  0  0  0  0  0  0  0  0  0
  137.9466  158.0117  131.8100 H   0  0  0  0  0  0  0  0  0  0  0  0
  140.1842  154.7893  132.5577 H   0  0  0  0  0  0  0  0  0  0  0  0
  1  2  1  0
  2  3  1  0
  2  4  1  0
  2  5  1  0
  5  6  1  0
  6  7  1  0
  7  8  2  0
  8  9  1  0
  9 10  2  0
 10 11  1  0
 11 12  2  0
 12 13  1  0
 13 14  1  0
 13 15  2  0
 12 16  1  0
 16 17  1  0
 17 18  2  0
 17 19  1  0
 19 20  1  0
 20 21  1  0
 21 22  1  0
 16 23  1  0
 23 24  2  0
 24  7  1  0
 23 10  1  0
  1 25  1  0
  1 26  1  0
  1 27  1  0
  3 28  1  0
  3 29  1  0
  3 30  1  0
  4 31  1  0
  5 32  1  0
  5 33  1  0
  6 34  1  0
  8 35  1  0
  9 36  1  0
 11 37  1  0
 14 38  1  0
 14 39  1  0
 20 40  1  0
 20 41  1  0
 21 42  1  0
 21 43  1  0
 24 44  1  0
M  END
>  <UniqueID>  (52) 
51

>  <SMILES>  (52) 
C[Si](C)(O)CNc1ccc2cc(C(N)=O)n(C(=O)OCCCl)c2c1

>  <Energy>  (52) 
65.06680400035698

>  <Genealogy>  (52) 
C[Si](C)(O)CNc1ccc2cc(C(N)=O)n(C(=O)OCCCl)c2c1 (3D coordinates assigned)
C[Si](C)(O)CNc1ccc2cc(C(N)=O)n(C(=O)OCCCl)c2c1 (optimized conformer: 65.06680400035698 kcal/mol)

>  <smiles>  (52) 
C[Si](C)(O)CNc1ccc2cc(C(N)=O)n(C(=O)OCCCl)c2c1

>  <score_type>  (52) 
oracle

>  <origin>  (52) 
adg

>  <m_score__min__energy>  (52) 
-7.4900000000000002

>  <m_primary>  (52) 
energy

$$$$
55:0
     RDKit          3D

 38 39  0  0  0  0  0  0  0  0999 V2000
  143.1940  160.9360  133.3950 N   0  0  0  0  0  0  0  0  0  0  0  0
  144.5710  161.0470  133.7450 C   0  0  0  0  0  0  0  0  0  0  0  0
  145.0060  162.1390  134.1980 O   0  0  0  0  0  0  0  0  0  0  0  0
  145.5040  159.9220  133.5240 C   0  0  0  0  0  0  0  0  0  0  0  0
  146.8760  160.0920  133.3580 C   0  0  0  0  0  0  0  0  0  0  0  0
  147.3680  158.8380  133.0790 C   0  0  0  0  0  0  0  0  0  0  0  0
  148.6720  158.4240  132.8350 C   0  0  0  0  0  0  0  0  0  0  0  0
  148.8980  157.0580  132.5990 C   0  0  0  0  0  0  0  0  0  0  0  0
  147.8210  156.1300  132.6170 C   0  0  0  0  0  0  0  0  0  0  0  0
  148.0250  154.7200  132.3930 N   0  0  0  0  0  0  0  0  0  0  0  0
  149.2740  154.0060  132.6600 C   0  0  0  0  0  0  0  0  0  0  0  0
  148.9890  152.5820  133.1350 C   0  0  0  0  0  0  0  0  0  0  0  0
  147.6320  152.2910  132.9540 O   0  0  0  0  0  0  0  0  0  0  0  0
  146.5120  156.5950  132.8760 C   0  0  0  0  0  0  0  0  0  0  0  0
  146.3140  157.9630  133.0900 C   0  0  0  0  0  0  0  0  0  0  0  0
  145.1610  158.6120  133.3670 N   0  0  0  0  0  0  0  0  0  0  0  0
  143.8640  158.0150  133.5430 C   0  0  0  0  0  0  0  0  0  0  0  0
  143.0030  158.1030  132.6260 O   0  0  0  0  0  0  0  0  0  0  0  0
  143.5560  157.3520  134.7360 O   0  0  0  0  0  0  0  0  0  0  0  0
  143.6580  155.9370  134.8760 C   0  0  0  0  0  0  0  0  0  0  0  0
  144.9750  155.5900  135.2360 O   0  0  0  0  0  0  0  0  0  0  0  0
  145.2560  153.9530  134.8430 P   0  0  0  0  0  0  0  0  0  0  0  0
  145.5550  153.8330  133.3650 O   0  0  0  0  0  0  0  0  0  0  0  0
  146.5880  153.3970  135.7230 O   0  0  0  0  0  0  0  0  0  0  0  0
  143.9100  152.9990  135.2200 O   0  0  0  0  0  0  0  0  0  0  0  0
  142.8780  160.2610  132.6640 H   0  0  0  0  0  0  0  0  0  0  0  0
  147.4456  161.0300  133.4339 H   0  0  0  0  0  0  0  0  0  0  0  0
  149.5028  159.1450  132.8270 H   0  0  0  0  0  0  0  0  0  0  0  0
  149.9193  156.7023  132.3981 H   0  0  0  0  0  0  0  0  0  0  0  0
  147.2270  154.1570  132.0200 H   0  0  0  0  0  0  0  0  0  0  0  0
  149.8720  153.9664  131.7376 H   0  0  0  0  0  0  0  0  0  0  0  0
  149.8253  154.5390  133.4486 H   0  0  0  0  0  0  0  0  0  0  0  0
  149.5965  151.8732  132.5531 H   0  0  0  0  0  0  0  0  0  0  0  0
  149.2430  152.4943  134.2017 H   0  0  0  0  0  0  0  0  0  0  0  0
  147.1840  152.5250  133.8080 H   0  0  0  0  0  0  0  0  0  0  0  0
  145.6647  155.8943  132.9087 H   0  0  0  0  0  0  0  0  0  0  0  0
  142.9632  155.5957  135.6575 H   0  0  0  0  0  0  0  0  0  0  0  0
  143.4027  155.4566  133.9199 H   0  0  0  0  0  0  0  0  0  0  0  0
  1  2  1  0
  2  3  2  0
  2  4  1  0
  4  5  2  0
  5  6  1  0
  6  7  2  0
  7  8  1  0
  8  9  2  0
  9 10  1  0
 10 11  1  0
 11 12  1  0
 12 13  1  0
  9 14  1  0
 14 15  2  0
 15 16  1  0
 16 17  1  0
 17 18  2  0
 17 19  1  0
 19 20  1  0
 20 21  1  0
 21 22  1  0
 22 23  2  0
 22 24  1  0
 22 25  1  0
 16  4  1  0
 15  6  1  0
  1 26  1  0
  5 27  1  0
  7 28  1  0
  8 29  1  0
 10 30  1  0
 11 31  1  0
 11 32  1  0
 12 33  1  0
 12 34  1  0
 13 35  1  0
 14 36  1  0
 20 37  1  0
 20 38  1  0
M  CHG  3   1  -1  24  -1  25  -1
M  END
>  <UniqueID>  (53) 
52

>  <SMILES>  (53) 
[NH-]C(=O)c1cc2ccc(NCCO)cc2n1C(=O)OCOP(=O)([O-])[O-]

>  <Energy>  (53) 
72.67324147364124

>  <Genealogy>  (53) 
[NH-]C(=O)c1cc2ccc(NCCO)cc2n1C(=O)OCOP(=O)([O-])[O-] (protonated)
[NH-]C(=O)c1cc2ccc(NCCO)cc2n1C(=O)OCOP(=O)([O-])[O-] (3D coordinates assigned)
[NH-]C(=O)c1cc2ccc(NCCO)cc2n1C(=O)OCOP(=O)([O-])[O-] (optimized conformer: 72.67324147364124 kcal/mol)

>  <smiles>  (53) 
NC(=O)c1cc2ccc(NCCO)cc2n1C(=O)OCOP(=O)(O)O

>  <score_type>  (53) 
oracle

>  <origin>  (53) 
adg

>  <m_score__min__energy>  (53) 
-6.0300000000000002

>  <m_primary>  (53) 
energy

$$$$
56:0
     RDKit          3D

 36 37  0  0  0  0  0  0  0  0999 V2000
  145.8810  154.9250  135.1850 C   0  0  0  0  0  0  0  0  0  0  0  0
  146.8790  155.6500  134.3310 C   0  0  0  0  0  0  0  0  0  0  0  0
  147.9460  154.9400  133.7310 C   0  0  0  0  0  0  0  0  0  0  0  0
  148.8560  155.5970  132.8850 C   0  0  0  0  0  0  0  0  0  0  0  0
  148.6730  156.9580  132.6610 C   0  0  0  0  0  0  0  0  0  0  0  0
  149.3780  157.8250  131.8580 C   0  0  0  0  0  0  0  0  0  0  0  0
  148.7390  159.0540  131.9940 C   0  0  0  0  0  0  0  0  0  0  0  0
  149.2060  160.2910  131.3380 C   0  0  0  0  0  0  0  0  0  0  0  0
  148.4840  161.5160  131.4660 N   0  0  0  0  0  0  0  0  0  0  0  0
  150.2920  160.2790  130.6960 O   0  0  0  0  0  0  0  0  0  0  0  0
  147.6740  158.9520  132.8370 N   0  0  0  0  0  0  0  0  0  0  0  0
  146.6970  159.9600  133.1440 C   0  0  0  0  0  0  0  0  0  0  0  0
  147.0570  161.0370  133.6930 O   0  0  0  0  0  0  0  0  0  0  0  0
  145.3500  159.7400  132.8300 O   0  0  0  0  0  0  0  0  0  0  0  0
  144.3250  159.5620  133.8070 C   0  0  2  0  0  0  0  0  0  0  0  0
  143.4030  158.4350  133.3430 C   0  0  0  0  0  0  0  0  0  0  0  0
  143.5270  160.8620  133.9850 C   0  0  0  0  0  0  0  0  0  0  0  0
  144.3350  161.9790  133.7310 O   0  0  0  0  0  0  0  0  0  0  0  0
  147.6480  157.6620  133.2410 C   0  0  0  0  0  0  0  0  0  0  0  0
  146.7110  157.0260  134.0670 C   0  0  0  0  0  0  0  0  0  0  0  0
  146.1147  155.0948  136.2464 H   0  0  0  0  0  0  0  0  0  0  0  0
  144.8704  155.3010  134.9674 H   0  0  0  0  0  0  0  0  0  0  0  0
  145.9262  153.8477  134.9674 H   0  0  0  0  0  0  0  0  0  0  0  0
  148.0643  153.8644  133.9285 H   0  0  0  0  0  0  0  0  0  0  0  0
  149.6875  155.0519  132.4144 H   0  0  0  0  0  0  0  0  0  0  0  0
  150.2588  157.5957  131.2403 H   0  0  0  0  0  0  0  0  0  0  0  0
  147.6820  161.6030  132.1270 H   0  0  0  0  0  0  0  0  0  0  0  0
  148.8090  162.3710  130.9610 H   0  0  0  0  0  0  0  0  0  0  0  0
  144.7749  159.3021  134.7766 H   0  0  0  0  0  0  0  0  0  0  0  0
  142.9824  157.9209  134.2198 H   0  0  0  0  0  0  0  0  0  0  0  0
  142.5863  158.8552  132.7376 H   0  0  0  0  0  0  0  0  0  0  0  0
  143.9766  157.7178  132.7376 H   0  0  0  0  0  0  0  0  0  0  0  0
  142.6786  160.8635  133.2848 H   0  0  0  0  0  0  0  0  0  0  0  0
  143.1660  160.9157  135.0227 H   0  0  0  0  0  0  0  0  0  0  0  0
  145.0730  161.6720  133.1420 H   0  0  0  0  0  0  0  0  0  0  0  0
  145.8671  157.5847  134.4980 H   0  0  0  0  0  0  0  0  0  0  0  0
  1  2  1  0
  2  3  2  0
  3  4  1  0
  4  5  2  0
  5  6  1  0
  6  7  2  0
  7  8  1  0
  8  9  1  0
  8 10  2  0
  7 11  1  0
 11 12  1  0
 12 13  2  0
 12 14  1  0
 14 15  1  0
 15 16  1  0
 15 17  1  0
 17 18  1  0
 11 19  1  0
 19 20  2  0
 20  2  1  0
 19  5  1  0
  1 21  1  0
  1 22  1  0
  1 23  1  0
  3 24  1  0
  4 25  1  0
  6 26  1  0
  9 27  1  0
  9 28  1  0
 15 29  1  1
 16 30  1  0
 16 31  1  0
 16 32  1  0
 17 33  1  0
 17 34  1  0
 18 35  1  0
 20 36  1  0
M  END
>  <UniqueID>  (54) 
53

>  <SMILES>  (54) 
Cc1ccc2cc(C(N)=O)n(C(=O)O[C@H](C)CO)c2c1

>  <Energy>  (54) 
69.5090980434415

>  <Genealogy>  (54) 
Cc1ccc2cc(C(N)=O)n(C(=O)O[C@H](C)CO)c2c1 (chirality)
Cc1ccc2cc(C(N)=O)n(C(=O)O[C@H](C)CO)c2c1 (3D coordinates assigned)
Cc1ccc2cc(C(N)=O)n(C(=O)O[C@H](C)CO)c2c1 (optimized conformer: 69.5090980434415 kcal/mol)

>  <smiles>  (54) 
Cc1ccc2cc(C(N)=O)n(C(=O)OC(C)CO)c2c1

>  <score_type>  (54) 
oracle

>  <origin>  (54) 
adg

>  <m_score__min__energy>  (54) 
-6.3200000000000003

>  <m_primary>  (54) 
energy

$$$$
57:0
     RDKit          3D

 45 46  0  0  0  0  0  0  0  0999 V2000
  145.7290  160.8210  133.7360 C   0  0  0  0  0  0  0  0  0  0  0  0
  144.7620  160.1080  133.6470 C   0  0  0  0  0  0  0  0  0  0  0  0
  143.6070  159.2570  133.5410 C   0  0  0  0  0  0  0  0  0  0  0  0
  142.3190  159.8290  133.4080 C   0  0  0  0  0  0  0  0  0  0  0  0
  141.1810  159.0090  133.3130 C   0  0  0  0  0  0  0  0  0  0  0  0
  141.3680  157.6290  133.3510 C   0  0  0  0  0  0  0  0  0  0  0  0
  140.4480  156.6050  133.2980 C   0  0  0  0  0  0  0  0  0  0  0  0
  141.1950  155.4320  133.3850 C   0  0  0  0  0  0  0  0  0  0  0  0
  140.6070  154.0780  133.2980 C   0  0  0  0  0  0  0  0  0  0  0  0
  141.2610  152.9550  133.8810 N   0  0  0  0  0  0  0  0  0  0  0  0
  139.5260  153.9060  132.6730 O   0  0  0  0  0  0  0  0  0  0  0  0
  142.5220  155.7200  133.4970 N   0  0  0  0  0  0  0  0  0  0  0  0
  143.6140  154.8050  133.6770 C   0  0  0  0  0  0  0  0  0  0  0  0
  144.1700  154.7290  134.8060 O   0  0  0  0  0  0  0  0  0  0  0  0
  144.0410  153.9470  132.5980 N   0  0  0  0  0  0  0  0  0  0  0  0
  144.0920  154.4690  131.2290 C   0  0  0  0  0  0  0  0  0  0  0  0
  144.4950  152.6020  132.8500 C   0  0  0  0  0  0  0  0  0  0  0  0
  145.6840  152.2720  132.5850 O   0  0  0  0  0  0  0  0  0  0  0  0
  143.5980  151.6500  133.3510 O   0  0  0  0  0  0  0  0  0  0  0  0
  143.0330  150.5960  132.5720 C   0  0  0  0  0  0  0  0  0  0  0  0
  141.8490  150.1090  133.1970 O   0  0  0  0  0  0  0  0  0  0  0  0
  140.8660  149.3690  132.5290 C   0  0  0  0  0  0  0  0  0  0  0  0
  141.0570  148.1580  132.2380 O   0  0  0  0  0  0  0  0  0  0  0  0
  139.5840  150.0370  132.1250 C   0  0  2  0  0  0  0  0  0  0  0  0
  139.1870  149.6170  130.7040 C   0  0  0  0  0  0  0  0  0  0  0  0
  139.7270  151.4900  132.2270 N   0  0  0  0  0  0  0  0  0  0  0  0
  142.6120  157.0660  133.4680 C   0  0  0  0  0  0  0  0  0  0  0  0
  143.7610  157.8570  133.5760 C   0  0  0  0  0  0  0  0  0  0  0  0
  146.6119  161.4720  133.8172 H   0  0  0  0  0  0  0  0  0  0  0  0
  142.2077  160.9230  133.3788 H   0  0  0  0  0  0  0  0  0  0  0  0
  140.1753  159.4431  133.2119 H   0  0  0  0  0  0  0  0  0  0  0  0
  139.3555  156.6944  133.2064 H   0  0  0  0  0  0  0  0  0  0  0  0
  141.4910  152.1110  133.3100 H   0  0  0  0  0  0  0  0  0  0  0  0
  144.1989  155.5634  131.2576 H   0  0  0  0  0  0  0  0  0  0  0  0
  144.9516  154.0303  130.7011 H   0  0  0  0  0  0  0  0  0  0  0  0
  143.1638  154.2049  130.7011 H   0  0  0  0  0  0  0  0  0  0  0  0
  142.7860  150.9759  131.5697 H   0  0  0  0  0  0  0  0  0  0  0  0
  143.7619  149.7762  132.4910 H   0  0  0  0  0  0  0  0  0  0  0  0
  138.7806  149.7194  132.8060 H   0  0  0  0  0  0  0  0  0  0  0  0
  138.4322  148.8185  130.7551 H   0  0  0  0  0  0  0  0  0  0  0  0
  138.7694  150.4827  130.1690 H   0  0  0  0  0  0  0  0  0  0  0  0
  140.0748  149.2487  130.1690 H   0  0  0  0  0  0  0  0  0  0  0  0
  139.4560  151.8020  133.1890 H   0  0  0  0  0  0  0  0  0  0  0  0
  140.7350  151.7360  132.0960 H   0  0  0  0  0  0  0  0  0  0  0  0
  144.7553  157.3993  133.6850 H   0  0  0  0  0  0  0  0  0  0  0  0
  1  2  3  0
  2  3  1  0
  3  4  2  0
  4  5  1  0
  5  6  2  0
  6  7  1  0
  7  8  2  0
  8  9  1  0
  9 10  1  0
  9 11  2  0
  8 12  1  0
 12 13  1  0
 13 14  2  0
 13 15  1  0
 15 16  1  0
 15 17  1  0
 17 18  2  0
 17 19  1  0
 19 20  1  0
 20 21  1  0
 21 22  1  0
 22 23  2  0
 22 24  1  0
 24 25  1  0
 24 26  1  0
 12 27  1  0
 27 28  2  0
 28  3  1  0
 27  6  1  0
  1 29  1  0
  4 30  1  0
  5 31  1  0
  7 32  1  0
 10 33  1  0
 16 34  1  0
 16 35  1  0
 16 36  1  0
 20 37  1  0
 20 38  1  0
 24 39  1  1
 25 40  1  0
 25 41  1  0
 25 42  1  0
 26 43  1  0
 26 44  1  0
 28 45  1  0
M  CHG  1  10  -1
M  END
>  <UniqueID>  (55) 
54

>  <SMILES>  (55) 
C#Cc1ccc2cc(C([NH-])=O)n(C(=O)N(C)C(=O)OCOC(=O)[C@H](C)N)c2c1

>  <Energy>  (55) 
79.47436371478385

>  <Genealogy>  (55) 
C#Cc1ccc2cc(C([NH-])=O)n(C(=O)N(C)C(=O)OCOC(=O)C(C)N)c2c1 (protonated)
C#Cc1ccc2cc(C([NH-])=O)n(C(=O)N(C)C(=O)OCOC(=O)[C@H](C)N)c2c1 (chirality)
C#Cc1ccc2cc(C([NH-])=O)n(C(=O)N(C)C(=O)OCOC(=O)[C@H](C)N)c2c1 (3D coordinates assigned)
C#Cc1ccc2cc(C([NH-])=O)n(C(=O)N(C)C(=O)OCOC(=O)[C@H](C)N)c2c1 (optimized conformer: 79.47436371478385 kcal/mol)

>  <smiles>  (55) 
C#Cc1ccc2cc(C(N)=O)n(C(=O)N(C)C(=O)OCOC(=O)C(C)N)c2c1

>  <score_type>  (55) 
oracle

>  <origin>  (55) 
adg

>  <m_score__min__energy>  (55) 
-7.4900000000000002

>  <m_primary>  (55) 
energy

$$$$
58:0
     RDKit          3D

 38 39  0  0  0  0  0  0  0  0999 V2000
  149.0400  158.5970  132.7160 C   0  0  0  0  0  0  0  0  0  0  0  0
  147.7210  158.0210  133.1410 C   0  0  0  0  0  0  0  0  0  0  0  0
  146.5360  158.7690  132.9400 C   0  0  0  0  0  0  0  0  0  0  0  0
  145.2920  158.2720  133.3690 C   0  0  0  0  0  0  0  0  0  0  0  0
  145.2690  157.0280  133.9950 C   0  0  0  0  0  0  0  0  0  0  0  0
  144.2150  156.3390  134.5520 C   0  0  0  0  0  0  0  0  0  0  0  0
  144.7720  155.1720  135.0710 C   0  0  0  0  0  0  0  0  0  0  0  0
  143.9810  154.1180  135.7360 C   0  0  0  0  0  0  0  0  0  0  0  0
  144.2220  153.7580  137.0970 N   0  0  0  0  0  0  0  0  0  0  0  0
  143.1230  153.4770  135.0700 O   0  0  0  0  0  0  0  0  0  0  0  0
  146.1170  155.1430  134.8480 N   0  0  0  0  0  0  0  0  0  0  0  0
  147.0640  154.1690  135.3190 C   0  0  0  0  0  0  0  0  0  0  0  0
  148.1500  154.0010  134.7020 O   0  0  0  0  0  0  0  0  0  0  0  0
  146.7850  153.4200  136.5050 N   0  0  0  0  0  0  0  0  0  0  0  0
  147.4940  153.5900  137.7720 C   0  0  1  0  0  0  0  0  0  0  0  0
  146.5850  153.3150  138.9410 C   0  0  0  0  0  0  0  0  0  0  0  0
  146.7530  153.9050  140.0420 O   0  0  0  0  0  0  0  0  0  0  0  0
  145.5130  152.4470  138.7880 O   0  0  0  0  0  0  0  0  0  0  0  0
  148.7470  152.6880  137.7940 C   0  0  2  0  0  0  0  0  0  0  0  0
  149.9990  153.4230  138.2970 C   0  0  0  0  0  0  0  0  0  0  0  0
  148.9810  152.1750  136.5070 O   0  0  0  0  0  0  0  0  0  0  0  0
  146.4060  156.2870  134.1880 C   0  0  0  0  0  0  0  0  0  0  0  0
  147.6600  156.7660  133.7850 C   0  0  0  0  0  0  0  0  0  0  0  0
  149.6314  158.8553  133.6068 H   0  0  0  0  0  0  0  0  0  0  0  0
  149.5871  157.8559  132.1148 H   0  0  0  0  0  0  0  0  0  0  0  0
  148.8682  159.5020  132.1148 H   0  0  0  0  0  0  0  0  0  0  0  0
  146.5886  159.7490  132.4432 H   0  0  0  0  0  0  0  0  0  0  0  0
  144.3672  158.8473  133.2151 H   0  0  0  0  0  0  0  0  0  0  0  0
  143.1587  156.6446  134.5811 H   0  0  0  0  0  0  0  0  0  0  0  0
  143.6040  153.0640  137.5700 H   0  0  0  0  0  0  0  0  0  0  0  0
  145.0480  154.1250  137.6170 H   0  0  0  0  0  0  0  0  0  0  0  0
  147.8222  154.6360  137.8624 H   0  0  0  0  0  0  0  0  0  0  0  0
  148.5476  151.8696  138.5014 H   0  0  0  0  0  0  0  0  0  0  0  0
  150.0050  153.4265  139.3970 H   0  0  0  0  0  0  0  0  0  0  0  0
  150.8989  152.9098  137.9271 H   0  0  0  0  0  0  0  0  0  0  0  0
  149.9895  154.4589  137.9271 H   0  0  0  0  0  0  0  0  0  0  0  0
  148.1290  152.2680  136.0000 H   0  0  0  0  0  0  0  0  0  0  0  0
  148.5729  156.1795  133.9657 H   0  0  0  0  0  0  0  0  0  0  0  0
  1  2  1  0
  2  3  2  0
  3  4  1  0
  4  5  2  0
  5  6  1  0
  6  7  2  0
  7  8  1  0
  8  9  1  0
  8 10  2  0
  7 11  1  0
 11 12  1  0
 12 13  2  0
 12 14  1  0
 14 15  1  0
 15 16  1  0
 16 17  2  0
 16 18  1  0
 15 19  1  0
 19 20  1  0
 19 21  1  0
 11 22  1  0
 22 23  2  0
 23  2  1  0
 22  5  1  0
  1 24  1  0
  1 25  1  0
  1 26  1  0
  3 27  1  0
  4 28  1  0
  6 29  1  0
  9 30  1  0
  9 31  1  0
 15 32  1  1
 19 33  1  1
 20 34  1  0
 20 35  1  0
 20 36  1  0
 21 37  1  0
 23 38  1  0
M  CHG  2  14  -1  18  -1
M  END
>  <UniqueID>  (56) 
55

>  <SMILES>  (56) 
Cc1ccc2cc(C(N)=O)n(C(=O)[N-][C@@H](C(=O)[O-])[C@H](C)O)c2c1

>  <Energy>  (56) 
72.8699960443708

>  <Genealogy>  (56) 
Cc1ccc2cc(C(N)=O)n(C(=O)[N-]C(C(=O)[O-])C(C)O)c2c1 (protonated)
Cc1ccc2cc(C(N)=O)n(C(=O)[N-][C@@H](C(=O)[O-])[C@H](C)O)c2c1 (chirality)
Cc1ccc2cc(C(N)=O)n(C(=O)[N-][C@@H](C(=O)[O-])[C@H](C)O)c2c1 (3D coordinates assigned)
Cc1ccc2cc(C(N)=O)n(C(=O)[N-][C@@H](C(=O)[O-])[C@H](C)O)c2c1 (optimized conformer: 72.8699960443708 kcal/mol)

>  <smiles>  (56) 
Cc1ccc2cc(C(N)=O)n(C(=O)NC(C(=O)O)C(C)O)c2c1

>  <score_type>  (56) 
oracle

>  <origin>  (56) 
adg

>  <m_score__min__energy>  (56) 
-7.0899999999999999

>  <m_primary>  (56) 
energy

$$$$
59:0
     RDKit          3D

 42 43  0  0  0  0  0  0  0  0999 V2000
  140.3700  158.2770  136.7660 C   0  0  0  0  0  0  0  0  0  0  0  0
  140.5240  158.2920  135.3070 N   0  0  0  0  0  0  0  0  0  0  0  0
  139.4060  157.8470  134.4620 C   0  0  0  0  0  0  0  0  0  0  0  0
  141.7580  158.7580  134.7060 C   0  0  0  0  0  0  0  0  0  0  0  0
  141.9010  160.1160  134.3070 C   0  0  0  0  0  0  0  0  0  0  0  0
  143.0940  160.5750  133.7250 C   0  0  0  0  0  0  0  0  0  0  0  0
  144.1310  159.6650  133.5490 C   0  0  0  0  0  0  0  0  0  0  0  0
  145.3980  159.8530  133.0460 C   0  0  0  0  0  0  0  0  0  0  0  0
  146.0180  158.6070  133.1310 C   0  0  0  0  0  0  0  0  0  0  0  0
  147.3740  158.3220  132.6060 C   0  0  0  0  0  0  0  0  0  0  0  0
  147.6350  157.1300  131.8600 N   0  0  0  0  0  0  0  0  0  0  0  0
  148.3240  159.1090  132.8520 O   0  0  0  0  0  0  0  0  0  0  0  0
  145.1670  157.6880  133.6710 N   0  0  0  0  0  0  0  0  0  0  0  0
  145.4500  156.3190  134.0110 C   0  0  0  0  0  0  0  0  0  0  0  0
  145.4600  155.9580  135.2190 O   0  0  0  0  0  0  0  0  0  0  0  0
  145.6800  155.3870  132.9970 O   0  0  0  0  0  0  0  0  0  0  0  0
  145.4160  153.9940  133.1500 C   0  0  0  0  0  0  0  0  0  0  0  0
  146.2160  153.2410  132.2620 O   0  0  0  0  0  0  0  0  0  0  0  0
  147.3330  152.6780  132.9300 C   0  0  0  0  0  0  0  0  0  0  0  0
  148.4830  153.6930  132.9940 C   0  0  0  0  0  0  0  0  0  0  0  0
  148.1960  154.8200  132.2070 O   0  0  0  0  0  0  0  0  0  0  0  0
  144.0140  158.3500  133.9160 C   0  0  0  0  0  0  0  0  0  0  0  0
  142.8430  157.8670  134.5110 C   0  0  0  0  0  0  0  0  0  0  0  0
  141.3579  158.3733  137.2400 H   0  0  0  0  0  0  0  0  0  0  0  0
  139.7311  159.1171  137.0759 H   0  0  0  0  0  0  0  0  0  0  0  0
  139.9054  157.3293  137.0759 H   0  0  0  0  0  0  0  0  0  0  0  0
  138.5735  157.5156  135.1000 H   0  0  0  0  0  0  0  0  0  0  0  0
  139.0719  158.6807  133.8269 H   0  0  0  0  0  0  0  0  0  0  0  0
  139.7362  157.0118  133.8269 H   0  0  0  0  0  0  0  0  0  0  0  0
  141.0658  160.8161  134.4564 H   0  0  0  0  0  0  0  0  0  0  0  0
  143.2051  161.6251  133.4169 H   0  0  0  0  0  0  0  0  0  0  0  0
  145.8299  160.7877  132.6591 H   0  0  0  0  0  0  0  0  0  0  0  0
  148.6070  156.9130  131.5430 H   0  0  0  0  0  0  0  0  0  0  0  0
  146.8650  156.4900  131.5710 H   0  0  0  0  0  0  0  0  0  0  0  0
  145.6411  153.6938  134.1840 H   0  0  0  0  0  0  0  0  0  0  0  0
  144.3563  153.8046  132.9238 H   0  0  0  0  0  0  0  0  0  0  0  0
  147.0403  152.3963  133.9523 H   0  0  0  0  0  0  0  0  0  0  0  0
  147.6705  151.7895  132.3762 H   0  0  0  0  0  0  0  0  0  0  0  0
  148.6278  154.0090  134.0376 H   0  0  0  0  0  0  0  0  0  0  0  0
  149.3965  153.2165  132.6087 H   0  0  0  0  0  0  0  0  0  0  0  0
  147.3170  154.6530  131.7830 H   0  0  0  0  0  0  0  0  0  0  0  0
  142.7660  156.8146  134.8218 H   0  0  0  0  0  0  0  0  0  0  0  0
  1  2  1  0
  2  3  1  0
  2  4  1  0
  4  5  2  0
  5  6  1  0
  6  7  2  0
  7  8  1  0
  8  9  2  0
  9 10  1  0
 10 11  1  0
 10 12  2  0
  9 13  1  0
 13 14  1  0
 14 15  2  0
 14 16  1  0
 16 17  1  0
 17 18  1  0
 18 19  1  0
 19 20  1  0
 20 21  1  0
 13 22  1  0
 22 23  2  0
 23  4  1  0
 22  7  1  0
  1 24  1  0
  1 25  1  0
  1 26  1  0
  3 27  1  0
  3 28  1  0
  3 29  1  0
  5 30  1  0
  6 31  1  0
  8 32  1  0
 11 33  1  0
 11 34  1  0
 17 35  1  0
 17 36  1  0
 19 37  1  0
 19 38  1  0
 20 39  1  0
 20 40  1  0
 21 41  1  0
 23 42  1  0
M  END
>  <UniqueID>  (57) 
56

>  <SMILES>  (57) 
CN(C)c1ccc2cc(C(N)=O)n(C(=O)OCOCCO)c2c1

>  <Energy>  (57) 
80.07034557304803

>  <Genealogy>  (57) 
CN(C)c1ccc2cc(C(N)=O)n(C(=O)OCOCCO)c2c1 (3D coordinates assigned)
CN(C)c1ccc2cc(C(N)=O)n(C(=O)OCOCCO)c2c1 (optimized conformer: 80.07034557304803 kcal/mol)

>  <smiles>  (57) 
CN(C)c1ccc2cc(C(N)=O)n(C(=O)OCOCCO)c2c1

>  <score_type>  (57) 
oracle

>  <origin>  (57) 
adg

>  <m_score__min__energy>  (57) 
-5.1399999999999997

>  <m_primary>  (57) 
energy

$$$$
60:0
     RDKit          3D

 47 48  0  0  0  0  0  0  0  0999 V2000
  141.6650  158.7080  137.8890 C   0  0  0  0  0  0  0  0  0  0  0  0
  141.1940  157.9930  136.6130 C   0  0  0  0  0  0  0  0  0  0  0  0
  141.2770  156.4710  136.8350 C   0  0  0  0  0  0  0  0  0  0  0  0
  139.7440  158.4190  136.3120 C   0  0  0  0  0  0  0  0  0  0  0  0
  142.0700  158.3990  135.5520 O   0  0  0  0  0  0  0  0  0  0  0  0
  141.7350  159.2160  134.4630 C   0  0  0  0  0  0  0  0  0  0  0  0
  141.6200  160.4640  134.5910 O   0  0  0  0  0  0  0  0  0  0  0  0
  141.5310  158.6050  133.1880 N   0  0  0  0  0  0  0  0  0  0  0  0
  140.2130  158.3010  132.6490 C   0  0  0  0  0  0  0  0  0  0  0  0
  139.7940  156.9510  133.1270 C   0  0  0  0  0  0  0  0  0  0  0  0
  138.8470  156.8400  133.9530 O   0  0  0  0  0  0  0  0  0  0  0  0
  140.4660  155.8260  132.6340 O   0  0  0  0  0  0  0  0  0  0  0  0
  140.1880  154.4980  132.9790 C   0  0  0  0  0  0  0  0  0  0  0  0
  138.9980  154.1060  133.1220 O   0  0  0  0  0  0  0  0  0  0  0  0
  141.2750  153.5820  133.1990 N   0  0  0  0  0  0  0  0  0  0  0  0
  142.5100  153.8630  133.7000 C   0  0  0  0  0  0  0  0  0  0  0  0
  142.9370  155.1530  134.2800 C   0  0  0  0  0  0  0  0  0  0  0  0
  142.7190  156.3830  133.5880 N   0  0  0  0  0  0  0  0  0  0  0  0
  143.4510  155.1740  135.4300 O   0  0  0  0  0  0  0  0  0  0  0  0
  143.3310  152.7390  133.6500 C   0  0  0  0  0  0  0  0  0  0  0  0
  142.5490  151.7440  133.1130 C   0  0  0  0  0  0  0  0  0  0  0  0
  142.8650  150.4200  132.8220 C   0  0  0  0  0  0  0  0  0  0  0  0
  141.8720  149.6180  132.2360 C   0  0  0  0  0  0  0  0  0  0  0  0
  140.5840  150.1450  131.9560 C   0  0  0  0  0  0  0  0  0  0  0  0
  139.5360  149.2980  131.2800 C   0  0  0  0  0  0  0  0  0  0  0  0
  139.0750  149.9540  130.1540 F   0  0  0  0  0  0  0  0  0  0  0  0
  140.0560  148.0710  130.9070 F   0  0  0  0  0  0  0  0  0  0  0  0
  138.4740  149.0740  132.1390 F   0  0  0  0  0  0  0  0  0  0  0  0
  140.3140  151.5040  132.2390 C   0  0  0  0  0  0  0  0  0  0  0  0
  141.3130  152.2760  132.8460 C   0  0  0  0  0  0  0  0  0  0  0  0
  141.3036  158.1594  138.7713 H   0  0  0  0  0  0  0  0  0  0  0  0
  142.7643  158.7441  137.9046 H   0  0  0  0  0  0  0  0  0  0  0  0
  141.2642  159.7323  137.9046 H   0  0  0  0  0  0  0  0  0  0  0  0
  141.2886  156.2579  137.9141 H   0  0  0  0  0  0  0  0  0  0  0  0
  140.4040  155.9852  136.3747 H   0  0  0  0  0  0  0  0  0  0  0  0
  142.1976  156.0830  136.3747 H   0  0  0  0  0  0  0  0  0  0  0  0
  139.2046  158.5775  137.2575 H   0  0  0  0  0  0  0  0  0  0  0  0
  139.7493  159.3535  135.7318 H   0  0  0  0  0  0  0  0  0  0  0  0
  139.2430  157.6301  135.7318 H   0  0  0  0  0  0  0  0  0  0  0  0
  139.4903  159.0553  132.9937 H   0  0  0  0  0  0  0  0  0  0  0  0
  140.2487  158.3122  131.5496 H   0  0  0  0  0  0  0  0  0  0  0  0
  142.1470  156.4150  132.7140 H   0  0  0  0  0  0  0  0  0  0  0  0
  143.0620  157.2800  133.9940 H   0  0  0  0  0  0  0  0  0  0  0  0
  144.3803  152.6636  133.9713 H   0  0  0  0  0  0  0  0  0  0  0  0
  143.8628  150.0139  133.0444 H   0  0  0  0  0  0  0  0  0  0  0  0
  142.0950  148.5690  131.9911 H   0  0  0  0  0  0  0  0  0  0  0  0
  139.3387  151.9462  131.9875 H   0  0  0  0  0  0  0  0  0  0  0  0
  1  2  1  0
  2  3  1  0
  2  4  1  0
  2  5  1  0
  5  6  1  0
  6  7  2  0
  6  8  1  0
  8  9  1  0
  9 10  1  0
 10 11  2  0
 10 12  1  0
 12 13  1  0
 13 14  2  0
 13 15  1  0
 15 16  1  0
 16 17  1  0
 17 18  1  0
 17 19  2  0
 16 20  2  0
 20 21  1  0
 21 22  2  0
 22 23  1  0
 23 24  2  0
 24 25  1  0
 25 26  1  0
 25 27  1  0
 25 28  1  0
 24 29  1  0
 29 30  2  0
 30 15  1  0
 30 21  1  0
  1 31  1  0
  1 32  1  0
  1 33  1  0
  3 34  1  0
  3 35  1  0
  3 36  1  0
  4 37  1  0
  4 38  1  0
  4 39  1  0
  9 40  1  0
  9 41  1  0
 18 42  1  0
 18 43  1  0
 20 44  1  0
 22 45  1  0
 23 46  1  0
 29 47  1  0
M  CHG  1   8  -1
M  END
>  <UniqueID>  (58) 
57

>  <SMILES>  (58) 
CC(C)(C)OC(=O)[N-]CC(=O)OC(=O)n1c(C(N)=O)cc2ccc(C(F)(F)F)cc21

>  <Energy>  (58) 
78.52593213665905

>  <Genealogy>  (58) 
CC(C)(C)OC(=O)[N-]CC(=O)OC(=O)n1c(C(N)=O)cc2ccc(C(F)(F)F)cc21 (protonated)
CC(C)(C)OC(=O)[N-]CC(=O)OC(=O)n1c(C(N)=O)cc2ccc(C(F)(F)F)cc21 (3D coordinates assigned)
CC(C)(C)OC(=O)[N-]CC(=O)OC(=O)n1c(C(N)=O)cc2ccc(C(F)(F)F)cc21 (optimized conformer: 78.52593213665905 kcal/mol)

>  <smiles>  (58) 
CC(C)(C)OC(=O)NCC(=O)OC(=O)n1c(C(N)=O)cc2ccc(C(F)(F)F)cc21

>  <score_type>  (58) 
oracle

>  <origin>  (58) 
adg

>  <m_score__min__energy>  (58) 
-6.9500000000000002

>  <m_primary>  (58) 
energy

$$$$
61:0
     RDKit          3D

 35 36  0  0  0  0  0  0  0  0999 V2000
  149.6050  160.1560  131.3860 C   0  0  0  0  0  0  0  0  0  0  0  0
  148.6420  159.2870  132.1380 C   0  0  0  0  0  0  0  0  0  0  0  0
  147.4670  159.8500  132.6940 C   0  0  0  0  0  0  0  0  0  0  0  0
  146.5310  159.0380  133.3590 C   0  0  0  0  0  0  0  0  0  0  0  0
  146.7960  157.6740  133.4470 C   0  0  0  0  0  0  0  0  0  0  0  0
  146.0430  156.6620  133.9970 C   0  0  0  0  0  0  0  0  0  0  0  0
  146.7780  155.5000  133.7810 C   0  0  0  0  0  0  0  0  0  0  0  0
  146.3610  154.1720  134.2720 C   0  0  0  0  0  0  0  0  0  0  0  0
  146.1540  153.0820  133.3710 N   0  0  0  0  0  0  0  0  0  0  0  0
  146.2420  153.9790  135.5110 O   0  0  0  0  0  0  0  0  0  0  0  0
  147.9310  155.7760  133.1100 N   0  0  0  0  0  0  0  0  0  0  0  0
  148.8840  154.8300  132.5980 C   0  0  0  0  0  0  0  0  0  0  0  0
  150.0260  155.2230  132.2340 O   0  0  0  0  0  0  0  0  0  0  0  0
  148.5270  153.4790  132.4990 O   0  0  0  0  0  0  0  0  0  0  0  0
  149.4000  152.4000  132.6860 C   0  0  0  0  0  0  0  0  0  0  0  0
  150.6490  152.5440  132.5830 O   0  0  0  0  0  0  0  0  0  0  0  0
  148.8380  151.0610  133.0470 C   0  0  0  0  0  0  0  0  0  0  0  0
  147.9280  150.5250  131.9390 C   0  0  0  0  0  0  0  0  0  0  0  0
  146.7890  151.3310  131.7920 O   0  0  0  0  0  0  0  0  0  0  0  0
  147.9310  157.1150  132.9160 C   0  0  0  0  0  0  0  0  0  0  0  0
  148.8690  157.8970  132.2300 C   0  0  0  0  0  0  0  0  0  0  0  0
  150.2267  160.7170  132.0993 H   0  0  0  0  0  0  0  0  0  0  0  0
  150.2491  159.5275  130.7535 H   0  0  0  0  0  0  0  0  0  0  0  0
  149.0457  160.8611  130.7535 H   0  0  0  0  0  0  0  0  0  0  0  0
  147.2852  160.9312  132.6049 H   0  0  0  0  0  0  0  0  0  0  0  0
  145.6175  159.4673  133.7962 H   0  0  0  0  0  0  0  0  0  0  0  0
  145.0688  156.7521  134.4997 H   0  0  0  0  0  0  0  0  0  0  0  0
  146.3950  153.1630  132.3600 H   0  0  0  0  0  0  0  0  0  0  0  0
  145.8300  152.1570  133.7340 H   0  0  0  0  0  0  0  0  0  0  0  0
  149.6666  150.3547  133.2038 H   0  0  0  0  0  0  0  0  0  0  0  0
  148.2417  151.1698  133.9650 H   0  0  0  0  0  0  0  0  0  0  0  0
  148.4849  150.5122  130.9904 H   0  0  0  0  0  0  0  0  0  0  0  0
  147.6063  149.5085  132.2098 H   0  0  0  0  0  0  0  0  0  0  0  0
  147.1050  152.2130  131.4660 H   0  0  0  0  0  0  0  0  0  0  0  0
  149.7597  157.4395  131.7746 H   0  0  0  0  0  0  0  0  0  0  0  0
  1  2  1  0
  2  3  2  0
  3  4  1  0
  4  5  2  0
  5  6  1  0
  6  7  2  0
  7  8  1  0
  8  9  1  0
  8 10  2  0
  7 11  1  0
 11 12  1  0
 12 13  2  0
 12 14  1  0
 14 15  1  0
 15 16  2  0
 15 17  1  0
 17 18  1  0
 18 19  1  0
 11 20  1  0
 20 21  2  0
 21  2  1  0
 20  5  1  0
  1 22  1  0
  1 23  1  0
  1 24  1  0
  3 25  1  0
  4 26  1  0
  6 27  1  0
  9 28  1  0
  9 29  1  0
 17 30  1  0
 17 31  1  0
 18 32  1  0
 18 33  1  0
 19 34  1  0
 21 35  1  0
M  END
>  <UniqueID>  (59) 
58

>  <SMILES>  (59) 
Cc1ccc2cc(C(N)=O)n(C(=O)OC(=O)CCO)c2c1

>  <Energy>  (59) 
70.66464695563491

>  <Genealogy>  (59) 
Cc1ccc2cc(C(N)=O)n(C(=O)OC(=O)CCO)c2c1 (3D coordinates assigned)
Cc1ccc2cc(C(N)=O)n(C(=O)OC(=O)CCO)c2c1 (optimized conformer: 70.66464695563491 kcal/mol)

>  <smiles>  (59) 
Cc1ccc2cc(C(N)=O)n(C(=O)OC(=O)CCO)c2c1

>  <score_type>  (59) 
oracle

>  <origin>  (59) 
adg

>  <m_score__min__energy>  (59) 
-6.5300000000000002

>  <m_primary>  (59) 
energy

$$$$
62:0
     RDKit          3D

 33 34  0  0  0  0  0  0  0  0999 V2000
  149.2210  153.8740  132.6140 C   0  0  0  0  0  0  0  0  0  0  0  0
  148.6910  154.9530  132.6980 C   0  0  0  0  0  0  0  0  0  0  0  0
  148.0570  156.2410  132.7990 C   0  0  0  0  0  0  0  0  0  0  0  0
  148.8210  157.4170  132.6210 C   0  0  0  0  0  0  0  0  0  0  0  0
  148.2100  158.6810  132.7030 C   0  0  0  0  0  0  0  0  0  0  0  0
  146.8450  158.7300  132.9700 C   0  0  0  0  0  0  0  0  0  0  0  0
  146.0030  159.8130  133.0800 C   0  0  0  0  0  0  0  0  0  0  0  0
  144.7440  159.2780  133.3460 C   0  0  0  0  0  0  0  0  0  0  0  0
  143.5440  160.0960  133.6280 C   0  0  0  0  0  0  0  0  0  0  0  0
  142.2990  159.8130  132.9880 N   0  0  0  0  0  0  0  0  0  0  0  0
  143.6180  161.0760  134.4160 O   0  0  0  0  0  0  0  0  0  0  0  0
  144.8040  157.9160  133.3950 N   0  0  0  0  0  0  0  0  0  0  0  0
  143.7180  156.9950  133.5880 C   0  0  0  0  0  0  0  0  0  0  0  0
  143.7890  156.1270  134.5010 O   0  0  0  0  0  0  0  0  0  0  0  0
  142.5850  157.0820  132.7680 O   0  0  0  0  0  0  0  0  0  0  0  0
  141.2620  156.9390  133.2040 C   0  0  0  0  0  0  0  0  0  0  0  0
  140.7260  155.8000  133.2990 O   0  0  0  0  0  0  0  0  0  0  0  0
  140.5380  158.0870  133.5350 O   0  0  0  0  0  0  0  0  0  0  0  0
  139.1890  158.2890  133.1310 C   0  0  0  0  0  0  0  0  0  0  0  0
  139.1560  159.2350  131.9780 C   0  0  0  0  0  0  0  0  0  0  0  0
  138.0530  159.6320  131.5190 O   0  0  0  0  0  0  0  0  0  0  0  0
  140.3410  159.7240  131.4460 O   0  0  0  0  0  0  0  0  0  0  0  0
  146.0970  157.5950  133.1640 C   0  0  0  0  0  0  0  0  0  0  0  0
  146.6760  156.3240  133.0690 C   0  0  0  0  0  0  0  0  0  0  0  0
  149.7048  152.8891  132.5373 H   0  0  0  0  0  0  0  0  0  0  0  0
  149.8994  157.3430  132.4172 H   0  0  0  0  0  0  0  0  0  0  0  0
  148.7931  159.6028  132.5605 H   0  0  0  0  0  0  0  0  0  0  0  0
  146.2677  160.8759  132.9793 H   0  0  0  0  0  0  0  0  0  0  0  0
  141.4690  160.4200  133.1630 H   0  0  0  0  0  0  0  0  0  0  0  0
  142.1840  158.9780  132.3710 H   0  0  0  0  0  0  0  0  0  0  0  0
  138.7476  157.3274  132.8301 H   0  0  0  0  0  0  0  0  0  0  0  0
  138.6124  158.7086  133.9685 H   0  0  0  0  0  0  0  0  0  0  0  0
  146.0702  155.4154  133.2014 H   0  0  0  0  0  0  0  0  0  0  0  0
  1  2  3  0
  2  3  1  0
  3  4  2  0
  4  5  1  0
  5  6  2  0
  6  7  1  0
  7  8  2  0
  8  9  1  0
  9 10  1  0
  9 11  2  0
  8 12  1  0
 12 13  1  0
 13 14  2  0
 13 15  1  0
 15 16  1  0
 16 17  2  0
 16 18  1  0
 18 19  1  0
 19 20  1  0
 20 21  2  0
 20 22  1  0
 12 23  1  0
 23 24  2  0
 24  3  1  0
 23  6  1  0
  1 25  1  0
  4 26  1  0
  5 27  1  0
  7 28  1  0
 10 29  1  0
 10 30  1  0
 19 31  1  0
 19 32  1  0
 24 33  1  0
M  CHG  1  22  -1
M  END
>  <UniqueID>  (60) 
59

>  <SMILES>  (60) 
C#Cc1ccc2cc(C(N)=O)n(C(=O)OC(=O)OCC(=O)[O-])c2c1

>  <Energy>  (60) 
68.33375534956187

>  <Genealogy>  (60) 
C#Cc1ccc2cc(C(N)=O)n(C(=O)OC(=O)OCC(=O)[O-])c2c1 (protonated)
C#Cc1ccc2cc(C(N)=O)n(C(=O)OC(=O)OCC(=O)[O-])c2c1 (3D coordinates assigned)
C#Cc1ccc2cc(C(N)=O)n(C(=O)OC(=O)OCC(=O)[O-])c2c1 (optimized conformer: 68.33375534956187 kcal/mol)

>  <smiles>  (60) 
C#Cc1ccc2cc(C(N)=O)n(C(=O)OC(=O)OCC(=O)O)c2c1

>  <score_type>  (60) 
oracle

>  <origin>  (60) 
adg

>  <m_score__min__energy>  (60) 
-7.3799999999999999

>  <m_primary>  (60) 
energy

$$$$
63:0
     RDKit          3D

 45 46  0  0  0  0  0  0  0  0999 V2000
  149.2360  161.9570  130.3780 C   0  0  0  0  0  0  0  0  0  0  0  0
  148.9560  160.6410  131.0430 C   0  0  0  0  0  0  0  0  0  0  0  0
  149.8910  159.5830  130.9400 C   0  0  0  0  0  0  0  0  0  0  0  0
  149.6520  158.3530  131.5780 C   0  0  0  0  0  0  0  0  0  0  0  0
  148.4840  158.2220  132.3230 C   0  0  0  0  0  0  0  0  0  0  0  0
  147.9940  157.1400  133.0180 C   0  0  0  0  0  0  0  0  0  0  0  0
  146.7870  157.5690  133.5670 C   0  0  0  0  0  0  0  0  0  0  0  0
  145.9620  156.7370  134.4680 C   0  0  0  0  0  0  0  0  0  0  0  0
  144.5440  156.8760  134.5010 N   0  0  0  0  0  0  0  0  0  0  0  0
  146.5200  155.9260  135.2530 O   0  0  0  0  0  0  0  0  0  0  0  0
  146.5370  158.8630  133.2200 N   0  0  0  0  0  0  0  0  0  0  0  0
  145.3600  159.6350  133.5020 C   0  0  0  0  0  0  0  0  0  0  0  0
  145.4300  160.6290  134.2750 O   0  0  0  0  0  0  0  0  0  0  0  0
  144.1460  159.2970  132.8930 O   0  0  0  0  0  0  0  0  0  0  0  0
  142.8870  159.7510  133.3780 C   0  0  0  0  0  0  0  0  0  0  0  0
  142.3000  158.7440  134.1960 O   0  0  0  0  0  0  0  0  0  0  0  0
  141.5720  157.6710  133.6720 C   0  0  0  0  0  0  0  0  0  0  0  0
  142.1710  156.7230  133.0920 O   0  0  0  0  0  0  0  0  0  0  0  0
  140.1380  157.6530  133.7950 N   0  0  0  0  0  0  0  0  0  0  0  0
  139.5360  157.8620  135.1150 C   0  0  0  0  0  0  0  0  0  0  0  0
  139.2870  157.4120  132.6240 C   0  0  0  0  0  0  0  0  0  0  0  0
  138.2810  158.5510  132.4560 C   0  0  0  0  0  0  0  0  0  0  0  0
  138.9360  159.8330  131.4020 S   0  0  0  0  0  0  0  0  0  0  0  0
  139.6020  160.8900  132.2390 O   0  0  0  0  0  0  0  0  0  0  0  0
  137.8240  160.4550  130.6040 O   0  0  0  0  0  0  0  0  0  0  0  0
  140.0640  159.1650  130.3530 O   0  0  0  0  0  0  0  0  0  0  0  0
  147.5850  159.2490  132.4600 C   0  0  0  0  0  0  0  0  0  0  0  0
  147.7900  160.4780  131.8200 C   0  0  0  0  0  0  0  0  0  0  0  0
  149.4000  162.7280  131.1453 H   0  0  0  0  0  0  0  0  0  0  0  0
  150.1351  161.8669  129.7507 H   0  0  0  0  0  0  0  0  0  0  0  0
  148.3781  162.2407  129.7507 H   0  0  0  0  0  0  0  0  0  0  0  0
  150.8123  159.7244  130.3559 H   0  0  0  0  0  0  0  0  0  0  0  0
  150.3658  157.5206  131.4910 H   0  0  0  0  0  0  0  0  0  0  0  0
  148.4568  156.1472  133.1188 H   0  0  0  0  0  0  0  0  0  0  0  0
  144.0520  157.5200  133.8430 H   0  0  0  0  0  0  0  0  0  0  0  0
  143.0313  160.6663  133.9707 H   0  0  0  0  0  0  0  0  0  0  0  0
  142.2228  159.9645  132.5275 H   0  0  0  0  0  0  0  0  0  0  0  0
  140.2677  157.6080  135.8961 H   0  0  0  0  0  0  0  0  0  0  0  0
  139.2388  158.9159  135.2198 H   0  0  0  0  0  0  0  0  0  0  0  0
  138.6497  157.2190  135.2198 H   0  0  0  0  0  0  0  0  0  0  0  0
  139.9169  157.3485  131.7245 H   0  0  0  0  0  0  0  0  0  0  0  0
  138.7393  156.4690  132.7676 H   0  0  0  0  0  0  0  0  0  0  0  0
  137.3587  158.1530  132.0076 H   0  0  0  0  0  0  0  0  0  0  0  0
  138.0731  158.9835  133.4458 H   0  0  0  0  0  0  0  0  0  0  0  0
  147.0604  161.2951  131.9207 H   0  0  0  0  0  0  0  0  0  0  0  0
  1  2  1  0
  2  3  2  0
  3  4  1  0
  4  5  2  0
  5  6  1  0
  6  7  2  0
  7  8  1  0
  8  9  1  0
  8 10  2  0
  7 11  1  0
 11 12  1  0
 12 13  2  0
 12 14  1  0
 14 15  1  0
 15 16  1  0
 16 17  1  0
 17 18  2  0
 17 19  1  0
 19 20  1  0
 19 21  1  0
 21 22  1  0
 22 23  1  0
 23 24  2  0
 23 25  2  0
 23 26  1  0
 11 27  1  0
 27 28  2  0
 28  2  1  0
 27  5  1  0
  1 29  1  0
  1 30  1  0
  1 31  1  0
  3 32  1  0
  4 33  1  0
  6 34  1  0
  9 35  1  0
 15 36  1  0
 15 37  1  0
 20 38  1  0
 20 39  1  0
 20 40  1  0
 21 41  1  0
 21 42  1  0
 22 43  1  0
 22 44  1  0
 28 45  1  0
M  CHG  2   9  -1  26  -1
M  END
>  <UniqueID>  (61) 
60

>  <SMILES>  (61) 
Cc1ccc2cc(C([NH-])=O)n(C(=O)OCOC(=O)N(C)CCS(=O)(=O)[O-])c2c1

>  <Energy>  (61) 
70.79788473235433

>  <Genealogy>  (61) 
Cc1ccc2cc(C([NH-])=O)n(C(=O)OCOC(=O)N(C)CCS(=O)(=O)[O-])c2c1 (protonated)
Cc1ccc2cc(C([NH-])=O)n(C(=O)OCOC(=O)N(C)CCS(=O)(=O)[O-])c2c1 (3D coordinates assigned)
Cc1ccc2cc(C([NH-])=O)n(C(=O)OCOC(=O)N(C)CCS(=O)(=O)[O-])c2c1 (optimized conformer: 70.79788473235433 kcal/mol)

>  <smiles>  (61) 
Cc1ccc2cc(C(N)=O)n(C(=O)OCOC(=O)N(C)CCS(=O)(=O)O)c2c1

>  <score_type>  (61) 
oracle

>  <origin>  (61) 
adg

>  <m_score__min__energy>  (61) 
-7.25

>  <m_primary>  (61) 
energy

$$$$
64:0
     RDKit          3D

 45 47  0  0  0  0  0  0  0  0999 V2000
  141.1680  148.2970  132.1930 N   0  0  0  0  0  0  0  0  0  0  0  0
  142.2210  149.2490  132.3490 C   0  0  0  0  0  0  0  0  0  0  0  0
  143.4150  148.8670  132.2180 O   0  0  0  0  0  0  0  0  0  0  0  0
  141.9210  150.6700  132.6310 C   0  0  0  0  0  0  0  0  0  0  0  0
  142.8260  151.5580  133.2100 C   0  0  0  0  0  0  0  0  0  0  0  0
  142.1330  152.7370  133.3670 C   0  0  0  0  0  0  0  0  0  0  0  0
  142.5520  153.9600  133.8750 C   0  0  0  0  0  0  0  0  0  0  0  0
  141.6340  155.0230  133.8830 C   0  0  0  0  0  0  0  0  0  0  0  0
  140.3170  154.8520  133.3720 C   0  0  0  0  0  0  0  0  0  0  0  0
  139.3450  155.9220  133.3560 N   0  0  0  0  0  0  0  0  0  0  0  0
  139.6070  157.3590  133.5300 C   0  0  1  0  0  0  0  0  0  0  0  0
  139.9330  157.7160  134.9980 C   0  0  0  0  0  0  0  0  0  0  0  0
  141.0400  158.7740  135.1020 C   0  0  0  0  0  0  0  0  0  0  0  0
  140.8590  159.8610  134.0310 C   0  0  0  0  0  0  0  0  0  0  0  0
  140.8280  159.3390  132.6450 N   0  0  0  0  0  0  0  0  0  0  0  0
  140.6640  157.8790  132.5350 C   0  0  0  0  0  0  0  0  0  0  0  0
  139.9310  153.5860  132.8760 C   0  0  0  0  0  0  0  0  0  0  0  0
  140.8620  152.5420  132.8950 C   0  0  0  0  0  0  0  0  0  0  0  0
  140.7150  151.2760  132.4410 N   0  0  0  0  0  0  0  0  0  0  0  0
  139.5510  150.7260  131.8060 C   0  0  0  0  0  0  0  0  0  0  0  0
  138.4010  151.0150  132.2370 O   0  0  0  0  0  0  0  0  0  0  0  0
  139.6970  149.8840  130.6960 O   0  0  0  0  0  0  0  0  0  0  0  0
  138.6140  149.1730  130.1040 C   0  0  0  0  0  0  0  0  0  0  0  0
  138.9860  147.7420  129.8820 C   0  0  0  0  0  0  0  0  0  0  0  0
  139.5620  147.0900  130.7920 O   0  0  0  0  0  0  0  0  0  0  0  0
  138.7130  147.1300  128.6640 O   0  0  0  0  0  0  0  0  0  0  0  0
  141.3880  147.3040  131.9600 H   0  0  0  0  0  0  0  0  0  0  0  0
  140.1700  148.5630  132.3450 H   0  0  0  0  0  0  0  0  0  0  0  0
  143.8726  151.3588  133.4836 H   0  0  0  0  0  0  0  0  0  0  0  0
  143.5739  154.0923  134.2601 H   0  0  0  0  0  0  0  0  0  0  0  0
  141.9368  155.9994  134.2892 H   0  0  0  0  0  0  0  0  0  0  0  0
  138.3690  155.6700  133.0810 H   0  0  0  0  0  0  0  0  0  0  0  0
  138.6743  157.8896  133.2881 H   0  0  0  0  0  0  0  0  0  0  0  0
  139.0236  158.1056  135.4788 H   0  0  0  0  0  0  0  0  0  0  0  0
  140.2886  156.8030  135.4980 H   0  0  0  0  0  0  0  0  0  0  0  0
  141.0016  159.2393  136.0980 H   0  0  0  0  0  0  0  0  0  0  0  0
  142.0120  158.2835  134.9455 H   0  0  0  0  0  0  0  0  0  0  0  0
  139.9111  160.3842  134.2253 H   0  0  0  0  0  0  0  0  0  0  0  0
  141.7314  160.5272  134.1018 H   0  0  0  0  0  0  0  0  0  0  0  0
  141.7220  159.5990  132.1660 H   0  0  0  0  0  0  0  0  0  0  0  0
  140.3464  157.6299  131.5117 H   0  0  0  0  0  0  0  0  0  0  0  0
  141.6271  157.4021  132.7697 H   0  0  0  0  0  0  0  0  0  0  0  0
  138.9167  153.4245  132.4821 H   0  0  0  0  0  0  0  0  0  0  0  0
  137.7414  149.2207  130.7721 H   0  0  0  0  0  0  0  0  0  0  0  0
  138.3745  149.6329  129.1339 H   0  0  0  0  0  0  0  0  0  0  0  0
  1  2  1  0
  2  3  2  0
  2  4  1  0
  4  5  2  0
  5  6  1  0
  6  7  2  0
  7  8  1  0
  8  9  2  0
  9 10  1  0
 10 11  1  0
 11 12  1  0
 12 13  1  0
 13 14  1  0
 14 15  1  0
 15 16  1  0
  9 17  1  0
 17 18  2  0
 18 19  1  0
 19 20  1  0
 20 21  2  0
 20 22  1  0
 22 23  1  0
 23 24  1  0
 24 25  2  0
 24 26  1  0
 19  4  1  0
 18  6  1  0
 16 11  1  0
  1 27  1  0
  1 28  1  0
  5 29  1  0
  7 30  1  0
  8 31  1  0
 10 32  1  0
 11 33  1  6
 12 34  1  0
 12 35  1  0
 13 36  1  0
 13 37  1  0
 14 38  1  0
 14 39  1  0
 15 40  1  0
 16 41  1  0
 16 42  1  0
 17 43  1  0
 23 44  1  0
 23 45  1  0
M  CHG  1  26  -1
M  END
>  <UniqueID>  (62) 
61

>  <SMILES>  (62) 
NC(=O)c1cc2ccc(N[C@H]3CCCNC3)cc2n1C(=O)OCC(=O)[O-]

>  <Energy>  (62) 
91.43784857694564

>  <Genealogy>  (62) 
NC(=O)c1cc2ccc(N[C@H]3CCCNC3)cc2n1C(=O)OCC(=O)[O-] (protonated)
NC(=O)c1cc2ccc(N[C@H]3CCCNC3)cc2n1C(=O)OCC(=O)[O-] (3D coordinates assigned)
NC(=O)c1cc2ccc(N[C@H]3CCCNC3)cc2n1C(=O)OCC(=O)[O-] (nonaromatic ring conformer: 91.43784857694564 kcal/mol)

>  <smiles>  (62) 
NC(=O)c1cc2ccc(N[C@H]3CCCNC3)cc2n1C(=O)OCC(=O)O

>  <score_type>  (62) 
oracle

>  <origin>  (62) 
adg

>  <m_score__min__energy>  (62) 
-8.5

>  <m_primary>  (62) 
energy

$$$$
65:0
     RDKit          3D

 31 32  0  0  0  0  0  0  0  0999 V2000
  144.5880  161.1320  133.6990 C   0  0  0  0  0  0  0  0  0  0  0  0
  145.3480  160.2700  133.5500 N   0  0  0  0  0  0  0  0  0  0  0  0
  146.2720  159.2520  133.3830 C   0  0  0  0  0  0  0  0  0  0  0  0
  147.5980  159.6160  133.3630 C   0  0  0  0  0  0  0  0  0  0  0  0
  148.5350  158.6190  133.1980 C   0  0  0  0  0  0  0  0  0  0  0  0
  148.1450  157.3100  133.0610 C   0  0  0  0  0  0  0  0  0  0  0  0
  148.8680  156.1480  132.8860 C   0  0  0  0  0  0  0  0  0  0  0  0
  147.9870  155.0610  132.7990 C   0  0  0  0  0  0  0  0  0  0  0  0
  148.4610  153.7160  132.6150 C   0  0  0  0  0  0  0  0  0  0  0  0
  147.7190  152.5400  132.4520 N   0  0  0  0  0  0  0  0  0  0  0  0
  149.7360  153.5600  132.5960 O   0  0  0  0  0  0  0  0  0  0  0  0
  146.7410  155.5630  132.9190 N   0  0  0  0  0  0  0  0  0  0  0  0
  145.5160  154.8450  132.8920 C   0  0  0  0  0  0  0  0  0  0  0  0
  144.7120  155.1010  131.9260 O   0  0  0  0  0  0  0  0  0  0  0  0
  145.0990  153.9130  133.7780 O   0  0  0  0  0  0  0  0  0  0  0  0
  144.1600  152.9140  133.7040 C   0  0  0  0  0  0  0  0  0  0  0  0
  144.3030  151.8810  132.6490 C   0  0  0  0  0  0  0  0  0  0  0  0
  145.3390  152.1510  131.7620 O   0  0  0  0  0  0  0  0  0  0  0  0
  146.8270  156.9190  133.0770 C   0  0  0  0  0  0  0  0  0  0  0  0
  145.8930  157.9280  133.2430 C   0  0  0  0  0  0  0  0  0  0  0  0
  147.9006  160.6676  133.4750 H   0  0  0  0  0  0  0  0  0  0  0  0
  149.6047  158.8744  133.1759 H   0  0  0  0  0  0  0  0  0  0  0  0
  149.9644  156.0844  132.8244 H   0  0  0  0  0  0  0  0  0  0  0  0
  147.4510  151.9820  133.3020 H   0  0  0  0  0  0  0  0  0  0  0  0
  147.4650  152.2560  131.4740 H   0  0  0  0  0  0  0  0  0  0  0  0
  144.1656  152.3916  134.6720 H   0  0  0  0  0  0  0  0  0  0  0  0
  143.2302  153.4393  133.4403 H   0  0  0  0  0  0  0  0  0  0  0  0
  144.4980  150.9118  133.1314 H   0  0  0  0  0  0  0  0  0  0  0  0
  143.3679  151.8702  132.0698 H   0  0  0  0  0  0  0  0  0  0  0  0
  145.5970  153.0990  131.7190 H   0  0  0  0  0  0  0  0  0  0  0  0
  144.8237  157.6710  133.2641 H   0  0  0  0  0  0  0  0  0  0  0  0
  1  2  3  0
  2  3  1  0
  3  4  2  0
  4  5  1  0
  5  6  2  0
  6  7  1  0
  7  8  2  0
  8  9  1  0
  9 10  1  0
  9 11  2  0
  8 12  1  0
 12 13  1  0
 13 14  2  0
 13 15  1  0
 15 16  1  0
 16 17  1  0
 17 18  1  0
 12 19  1  0
 19 20  2  0
 20  3  1  0
 19  6  1  0
  4 21  1  0
  5 22  1  0
  7 23  1  0
 10 24  1  0
 10 25  1  0
 16 26  1  0
 16 27  1  0
 17 28  1  0
 17 29  1  0
 18 30  1  0
 20 31  1  0
M  CHG  2   1  -1   2   1
M  END
>  <smiles>  (63) 
[C-]#[N+]c1ccc2cc(C(N)=O)n(C(=O)OCCO)c2c1

>  <score_type>  (63) 
oracle

>  <origin>  (63) 
adg

>  <m_score__min__energy>  (63) 
-6.29

>  <m_primary>  (63) 
energy

$$$$
66:0
     RDKit          3D

 46 48  0  0  0  0  0  0  0  0999 V2000
  147.4170  154.1390  135.6560 C   0  0  0  0  0  0  0  0  0  0  0  0
  147.1580  154.4600  134.1720 C   0  0  0  0  0  0  0  0  0  0  0  0
  146.0990  153.4860  133.6310 C   0  0  0  0  0  0  0  0  0  0  0  0
  148.4490  154.2990  133.3460 C   0  0  0  0  0  0  0  0  0  0  0  0
  146.6250  155.7840  134.0280 O   0  0  0  0  0  0  0  0  0  0  0  0
  146.7720  156.6250  132.9150 C   0  0  0  0  0  0  0  0  0  0  0  0
  147.0150  156.1500  131.7730 O   0  0  0  0  0  0  0  0  0  0  0  0
  146.6680  158.0470  133.0870 N   0  0  0  0  0  0  0  0  0  0  0  0
  147.6090  158.9900  132.8000 C   0  0  0  0  0  0  0  0  0  0  0  0
  149.0130  158.7270  132.4190 C   0  0  0  0  0  0  0  0  0  0  0  0
  149.4980  157.3950  132.2830 N   0  0  0  0  0  0  0  0  0  0  0  0
  149.8060  159.6920  132.2620 O   0  0  0  0  0  0  0  0  0  0  0  0
  147.0930  160.2690  132.9930 C   0  0  0  0  0  0  0  0  0  0  0  0
  145.7980  160.0800  133.4160 C   0  0  0  0  0  0  0  0  0  0  0  0
  144.8200  161.0130  133.7410 C   0  0  0  0  0  0  0  0  0  0  0  0
  143.5540  160.5360  134.1190 C   0  0  0  0  0  0  0  0  0  0  0  0
  143.2800  159.1420  134.1580 C   0  0  0  0  0  0  0  0  0  0  0  0
  141.9690  158.6630  134.5380 N   0  0  0  0  0  0  0  0  0  0  0  0
  141.4770  158.9200  135.9090 C   0  0  0  0  0  0  0  0  0  0  0  0
  140.3660  157.9470  136.3090 C   0  0  0  0  0  0  0  0  0  0  0  0
  139.3280  157.9520  135.2940 N   0  0  0  0  0  0  0  0  0  0  0  0
  139.6990  157.9160  133.9200 C   0  0  0  0  0  0  0  0  0  0  0  0
  138.8110  157.8320  133.0320 O   0  0  0  0  0  0  0  0  0  0  0  0
  141.1510  157.9360  133.5430 C   0  0  0  0  0  0  0  0  0  0  0  0
  144.3080  158.2270  133.8180 C   0  0  0  0  0  0  0  0  0  0  0  0
  145.5650  158.7310  133.4630 C   0  0  0  0  0  0  0  0  0  0  0  0
  146.8512  154.8402  136.2870 H   0  0  0  0  0  0  0  0  0  0  0  0
  147.0934  153.1098  135.8704 H   0  0  0  0  0  0  0  0  0  0  0  0
  148.4914  154.2378  135.8704 H   0  0  0  0  0  0  0  0  0  0  0  0
  145.5777  153.0066  134.4727 H   0  0  0  0  0  0  0  0  0  0  0  0
  145.3727  154.0383  133.0166 H   0  0  0  0  0  0  0  0  0  0  0  0
  146.5887  152.7161  133.0166 H   0  0  0  0  0  0  0  0  0  0  0  0
  149.3078  154.1919  134.0250 H   0  0  0  0  0  0  0  0  0  0  0  0
  148.3692  153.4038  132.7117 H   0  0  0  0  0  0  0  0  0  0  0  0
  148.5915  155.1863  132.7117 H   0  0  0  0  0  0  0  0  0  0  0  0
  149.0820  156.7400  131.5840 H   0  0  0  0  0  0  0  0  0  0  0  0
  147.6112  161.2271  132.8397 H   0  0  0  0  0  0  0  0  0  0  0  0
  145.0311  162.0919  133.7033 H   0  0  0  0  0  0  0  0  0  0  0  0
  142.7634  161.2517  134.3887 H   0  0  0  0  0  0  0  0  0  0  0  0
  142.3149  158.8119  136.6135 H   0  0  0  0  0  0  0  0  0  0  0  0
  141.0637  159.9390  135.9371 H   0  0  0  0  0  0  0  0  0  0  0  0
  140.7827  156.9332  136.4020 H   0  0  0  0  0  0  0  0  0  0  0  0
  139.9369  158.2576  137.2730 H   0  0  0  0  0  0  0  0  0  0  0  0
  141.5144  156.9002  133.4724 H   0  0  0  0  0  0  0  0  0  0  0  0
  141.2457  158.4560  132.5783 H   0  0  0  0  0  0  0  0  0  0  0  0
  144.1218  157.1430  133.8328 H   0  0  0  0  0  0  0  0  0  0  0  0
  1  2  1  0
  2  3  1  0
  2  4  1  0
  2  5  1  0
  5  6  1  0
  6  7  2  0
  6  8  1  0
  8  9  1  0
  9 10  1  0
 10 11  1  0
 10 12  2  0
  9 13  2  0
 13 14  1  0
 14 15  2  0
 15 16  1  0
 16 17  2  0
 17 18  1  0
 18 19  1  0
 19 20  1  0
 20 21  1  0
 21 22  1  0
 22 23  2  0
 22 24  1  0
 17 25  1  0
 25 26  2  0
 26  8  1  0
 26 14  1  0
 24 18  1  0
  1 27  1  0
  1 28  1  0
  1 29  1  0
  3 30  1  0
  3 31  1  0
  3 32  1  0
  4 33  1  0
  4 34  1  0
  4 35  1  0
 11 36  1  0
 13 37  1  0
 15 38  1  0
 16 39  1  0
 19 40  1  0
 19 41  1  0
 20 42  1  0
 20 43  1  0
 24 44  1  0
 24 45  1  0
 25 46  1  0
M  CHG  2  11  -1  21  -1
M  END
>  <UniqueID>  (64) 
62

>  <SMILES>  (64) 
CC(C)(C)OC(=O)n1c(C([NH-])=O)cc2ccc(N3CC[N-]C(=O)C3)cc21

>  <Energy>  (64) 
84.53333441725987

>  <Genealogy>  (64) 
CC(C)(C)OC(=O)n1c(C([NH-])=O)cc2ccc(N3CC[N-]C(=O)C3)cc21 (protonated)
CC(C)(C)OC(=O)n1c(C([NH-])=O)cc2ccc(N3CC[N-]C(=O)C3)cc21 (3D coordinates assigned)
CC(C)(C)OC(=O)n1c(C([NH-])=O)cc2ccc(N3CC[N-]C(=O)C3)cc21 (nonaromatic ring conformer: 84.53333441725987 kcal/mol)

>  <smiles>  (64) 
CC(C)(C)OC(=O)n1c(C(N)=O)cc2ccc(N3CCNC(=O)C3)cc21

>  <score_type>  (64) 
oracle

>  <origin>  (64) 
adg

>  <m_score__min__energy>  (64) 
-7.5499999999999998

>  <m_primary>  (64) 
energy

$$$$
67:0
     RDKit          3D

 39 40  0  0  0  0  0  0  0  0999 V2000
  148.6670  155.0770  132.6410 C   0  0  0  0  0  0  0  0  0  0  0  0
  148.0660  156.4450  132.7640 C   0  0  0  0  0  0  0  0  0  0  0  0
  148.8600  157.5940  132.5300 C   0  0  0  0  0  0  0  0  0  0  0  0
  148.3140  158.8810  132.6730 C   0  0  0  0  0  0  0  0  0  0  0  0
  146.9850  158.9850  133.0710 C   0  0  0  0  0  0  0  0  0  0  0  0
  146.2130  160.1040  133.2770 C   0  0  0  0  0  0  0  0  0  0  0  0
  144.9730  159.6240  133.6860 C   0  0  0  0  0  0  0  0  0  0  0  0
  143.8650  160.5040  134.1070 C   0  0  0  0  0  0  0  0  0  0  0  0
  142.7170  159.9780  134.7730 N   0  0  0  0  0  0  0  0  0  0  0  0
  143.9620  161.7480  133.9320 O   0  0  0  0  0  0  0  0  0  0  0  0
  144.9650  158.2610  133.7110 N   0  0  0  0  0  0  0  0  0  0  0  0
  143.8540  157.3980  134.0120 C   0  0  0  0  0  0  0  0  0  0  0  0
  143.7260  156.9080  135.1660 O   0  0  0  0  0  0  0  0  0  0  0  0
  142.9140  157.1060  133.0200 O   0  0  0  0  0  0  0  0  0  0  0  0
  141.7140  156.3820  133.2690 C   0  0  0  0  0  0  0  0  0  0  0  0
  140.5000  157.2120  132.8370 C   0  0  0  0  0  0  0  0  0  0  0  0
  139.7790  157.8610  134.0230 C   0  0  0  0  0  0  0  0  0  0  0  0
  140.5490  158.9380  134.5050 O   0  0  0  0  0  0  0  0  0  0  0  0
  140.5490  158.8910  136.2090 P   0  0  0  0  0  0  0  0  0  0  0  0
  140.6280  160.2930  136.7690 O   0  0  0  0  0  0  0  0  0  0  0  0
  141.8590  157.9810  136.7700 O   0  0  0  0  0  0  0  0  0  0  0  0
  139.1130  158.1690  136.7330 O   0  0  0  0  0  0  0  0  0  0  0  0
  146.2100  157.8840  133.3340 C   0  0  0  0  0  0  0  0  0  0  0  0
  146.7230  156.5890  133.1750 C   0  0  0  0  0  0  0  0  0  0  0  0
  148.8482  154.6645  133.6445 H   0  0  0  0  0  0  0  0  0  0  0  0
  147.9746  154.4201  132.0941 H   0  0  0  0  0  0  0  0  0  0  0  0
  149.6192  155.1426  132.0941 H   0  0  0  0  0  0  0  0  0  0  0  0
  149.9130  157.4781  132.2338 H   0  0  0  0  0  0  0  0  0  0  0  0
  148.9188  159.7785  132.4763 H   0  0  0  0  0  0  0  0  0  0  0  0
  146.5120  161.1545  133.1463 H   0  0  0  0  0  0  0  0  0  0  0  0
  142.6810  158.9800  135.0770 H   0  0  0  0  0  0  0  0  0  0  0  0
  141.9280  160.6100  135.0350 H   0  0  0  0  0  0  0  0  0  0  0  0
  141.7323  155.4405  132.7004 H   0  0  0  0  0  0  0  0  0  0  0  0
  141.6393  156.1673  134.3452 H   0  0  0  0  0  0  0  0  0  0  0  0
  140.8399  158.0048  132.1544 H   0  0  0  0  0  0  0  0  0  0  0  0
  139.7886  156.5318  132.3458 H   0  0  0  0  0  0  0  0  0  0  0  0
  138.7951  158.2297  133.6975 H   0  0  0  0  0  0  0  0  0  0  0  0
  139.6443  157.1180  134.8229 H   0  0  0  0  0  0  0  0  0  0  0  0
  146.0945  155.7066  133.3658 H   0  0  0  0  0  0  0  0  0  0  0  0
  1  2  1  0
  2  3  2  0
  3  4  1  0
  4  5  2  0
  5  6  1  0
  6  7  2  0
  7  8  1  0
  8  9  1  0
  8 10  2  0
  7 11  1  0
 11 12  1  0
 12 13  2  0
 12 14  1  0
 14 15  1  0
 15 16  1  0
 16 17  1  0
 17 18  1  0
 18 19  1  0
 19 20  2  0
 19 21  1  0
 19 22  1  0
 11 23  1  0
 23 24  2  0
 24  2  1  0
 23  5  1  0
  1 25  1  0
  1 26  1  0
  1 27  1  0
  3 28  1  0
  4 29  1  0
  6 30  1  0
  9 31  1  0
  9 32  1  0
 15 33  1  0
 15 34  1  0
 16 35  1  0
 16 36  1  0
 17 37  1  0
 17 38  1  0
 24 39  1  0
M  CHG  2  21  -1  22  -1
M  END
>  <UniqueID>  (65) 
63

>  <SMILES>  (65) 
Cc1ccc2cc(C(N)=O)n(C(=O)OCCCOP(=O)([O-])[O-])c2c1

>  <Energy>  (65) 
69.32938124365387

>  <Genealogy>  (65) 
Cc1ccc2cc(C(N)=O)n(C(=O)OCCCOP(=O)([O-])[O-])c2c1 (protonated)
Cc1ccc2cc(C(N)=O)n(C(=O)OCCCOP(=O)([O-])[O-])c2c1 (3D coordinates assigned)
Cc1ccc2cc(C(N)=O)n(C(=O)OCCCOP(=O)([O-])[O-])c2c1 (optimized conformer: 69.32938124365387 kcal/mol)

>  <smiles>  (65) 
Cc1ccc2cc(C(N)=O)n(C(=O)OCCCOP(=O)(O)O)c2c1

>  <score_type>  (65) 
oracle

>  <origin>  (65) 
adg

>  <m_score__min__energy>  (65) 
-6.2000000000000002

>  <m_primary>  (65) 
energy

$$$$
68:0
     RDKit          3D

 50 51  0  0  0  0  0  0  0  0999 V2000
  145.4750  162.7370  134.9680 C   0  0  0  0  0  0  0  0  0  0  0  0
  144.6900  162.6170  133.7290 N   0  0  0  0  0  0  0  0  0  0  0  0
  143.9520  163.8680  133.4880 C   0  0  0  0  0  0  0  0  0  0  0  0
  143.7680  161.4640  133.8140 C   0  0  0  0  0  0  0  0  0  0  0  0
  144.5400  160.1340  133.8610 C   0  0  0  0  0  0  0  0  0  0  0  0
  145.8650  160.2580  133.2490 N   0  0  0  0  0  0  0  0  0  0  0  0
  146.7630  159.1590  133.0190 C   0  0  0  0  0  0  0  0  0  0  0  0
  148.1590  159.4070  132.9670 C   0  0  0  0  0  0  0  0  0  0  0  0
  149.0750  158.3510  132.8110 C   0  0  0  0  0  0  0  0  0  0  0  0
  148.5670  157.0600  132.7010 C   0  0  0  0  0  0  0  0  0  0  0  0
  149.2200  155.8500  132.6170 C   0  0  0  0  0  0  0  0  0  0  0  0
  148.2110  154.8870  132.5820 C   0  0  0  0  0  0  0  0  0  0  0  0
  148.4700  153.4310  132.5890 C   0  0  0  0  0  0  0  0  0  0  0  0
  147.7060  152.5330  133.3950 N   0  0  0  0  0  0  0  0  0  0  0  0
  149.3750  152.9660  131.8460 O   0  0  0  0  0  0  0  0  0  0  0  0
  146.9880  155.4840  132.6350 N   0  0  0  0  0  0  0  0  0  0  0  0
  145.7020  154.8640  132.7570 C   0  0  0  0  0  0  0  0  0  0  0  0
  145.1180  154.4710  131.7100 O   0  0  0  0  0  0  0  0  0  0  0  0
  145.0510  154.7410  134.0430 N   0  0  0  0  0  0  0  0  0  0  0  0
  143.7580  154.0460  134.1410 C   0  0  0  0  0  0  0  0  0  0  0  0
  143.8940  152.6250  133.6920 C   0  0  0  0  0  0  0  0  0  0  0  0
  144.9990  152.1980  133.2640 O   0  0  0  0  0  0  0  0  0  0  0  0
  142.7990  151.7700  133.7370 O   0  0  0  0  0  0  0  0  0  0  0  0
  145.6170  155.3630  135.2510 C   0  0  0  0  0  0  0  0  0  0  0  0
  146.9190  154.7240  135.6140 C   0  0  0  0  0  0  0  0  0  0  0  0
  147.9770  155.4090  135.6400 O   0  0  0  0  0  0  0  0  0  0  0  0
  146.9620  153.3740  135.9420 O   0  0  0  0  0  0  0  0  0  0  0  0
  147.2220  156.8080  132.7110 C   0  0  0  0  0  0  0  0  0  0  0  0
  146.2880  157.8350  132.8610 C   0  0  0  0  0  0  0  0  0  0  0  0
  144.8075  162.6350  135.8363 H   0  0  0  0  0  0  0  0  0  0  0  0
  146.2379  161.9450  134.9969 H   0  0  0  0  0  0  0  0  0  0  0  0
  145.9664  163.7207  134.9969 H   0  0  0  0  0  0  0  0  0  0  0  0
  143.6819  164.3258  134.4511 H   0  0  0  0  0  0  0  0  0  0  0  0
  144.5849  164.5628  132.9164 H   0  0  0  0  0  0  0  0  0  0  0  0
  143.0378  163.6501  132.9164 H   0  0  0  0  0  0  0  0  0  0  0  0
  143.1598  161.5578  134.7258 H   0  0  0  0  0  0  0  0  0  0  0  0
  143.1290  161.4634  132.9187 H   0  0  0  0  0  0  0  0  0  0  0  0
  144.6588  159.8271  134.9106 H   0  0  0  0  0  0  0  0  0  0  0  0
  143.9682  159.3840  133.2948 H   0  0  0  0  0  0  0  0  0  0  0  0
  146.1940  161.2250  133.0200 H   0  0  0  0  0  0  0  0  0  0  0  0
  148.5300  160.4392  133.0498 H   0  0  0  0  0  0  0  0  0  0  0  0
  150.1582  158.5395  132.7770 H   0  0  0  0  0  0  0  0  0  0  0  0
  150.3062  155.6793  132.5844 H   0  0  0  0  0  0  0  0  0  0  0  0
  146.8100  152.8240  133.8420 H   0  0  0  0  0  0  0  0  0  0  0  0
  147.9830  151.5270  133.4530 H   0  0  0  0  0  0  0  0  0  0  0  0
  143.4148  154.0646  135.1859 H   0  0  0  0  0  0  0  0  0  0  0  0
  143.0288  154.5562  133.4944 H   0  0  0  0  0  0  0  0  0  0  0  0
  145.7807  156.4343  135.0626 H   0  0  0  0  0  0  0  0  0  0  0  0
  144.9113  155.2253  136.0835 H   0  0  0  0  0  0  0  0  0  0  0  0
  145.2091  157.6204  132.8565 H   0  0  0  0  0  0  0  0  0  0  0  0
  1  2  1  0
  2  3  1  0
  2  4  1  0
  4  5  1  0
  5  6  1  0
  6  7  1  0
  7  8  2  0
  8  9  1  0
  9 10  2  0
 10 11  1  0
 11 12  2  0
 12 13  1  0
 13 14  1  0
 13 15  2  0
 12 16  1  0
 16 17  1  0
 17 18  2  0
 17 19  1  0
 19 20  1  0
 20 21  1  0
 21 22  2  0
 21 23  1  0
 19 24  1  0
 24 25  1  0
 25 26  2  0
 25 27  1  0
 16 28  1  0
 28 29  2  0
 29  7  1  0
 28 10  1  0
  1 30  1  0
  1 31  1  0
  1 32  1  0
  3 33  1  0
  3 34  1  0
  3 35  1  0
  4 36  1  0
  4 37  1  0
  5 38  1  0
  5 39  1  0
  6 40  1  0
  8 41  1  0
  9 42  1  0
 11 43  1  0
 14 44  1  0
 14 45  1  0
 20 46  1  0
 20 47  1  0
 24 48  1  0
 24 49  1  0
 29 50  1  0
M  CHG  2  23  -1  27  -1
M  END
>  <UniqueID>  (66) 
64

>  <SMILES>  (66) 
CN(C)CCNc1ccc2cc(C(N)=O)n(C(=O)N(CC(=O)[O-])CC(=O)[O-])c2c1

>  <Energy>  (66) 
86.65672667608264

>  <Genealogy>  (66) 
CN(C)CCNc1ccc2cc(C(N)=O)n(C(=O)N(CC(=O)[O-])CC(=O)[O-])c2c1 (protonated)
CN(C)CCNc1ccc2cc(C(N)=O)n(C(=O)N(CC(=O)[O-])CC(=O)[O-])c2c1 (3D coordinates assigned)
CN(C)CCNc1ccc2cc(C(N)=O)n(C(=O)N(CC(=O)[O-])CC(=O)[O-])c2c1 (optimized conformer: 86.65672667608264 kcal/mol)

>  <smiles>  (66) 
CN(C)CCNc1ccc2cc(C(N)=O)n(C(=O)N(CC(=O)O)CC(=O)O)c2c1

>  <score_type>  (66) 
oracle

>  <origin>  (66) 
adg

>  <m_score__min__energy>  (66) 
-7.1900000000000004

>  <m_primary>  (66) 
energy

$$$$
69:0
     RDKit          3D

 42 43  0  0  0  0  0  0  0  0999 V2000
  147.7310  160.4940  130.8160 C   0  0  0  0  0  0  0  0  0  0  0  0
  148.2920  159.7410  131.7730 C   0  0  0  0  0  0  0  0  0  0  0  0
  149.5240  158.9660  131.4790 C   0  0  0  0  0  0  0  0  0  0  0  0
  150.4710  159.4840  130.8290 O   0  0  0  0  0  0  0  0  0  0  0  0
  149.6480  157.6480  131.9050 O   0  0  0  0  0  0  0  0  0  0  0  0
  147.6830  159.6930  133.1280 C   0  0  0  0  0  0  0  0  0  0  0  0
  148.3350  160.1020  134.1260 O   0  0  0  0  0  0  0  0  0  0  0  0
  146.3530  159.1830  133.3260 N   0  0  0  0  0  0  0  0  0  0  0  0
  145.2360  159.8790  133.6760 C   0  0  0  0  0  0  0  0  0  0  0  0
  145.1350  161.3480  133.8120 C   0  0  0  0  0  0  0  0  0  0  0  0
  146.2610  162.1290  134.2040 N   0  0  0  0  0  0  0  0  0  0  0  0
  144.0470  161.9260  133.5480 O   0  0  0  0  0  0  0  0  0  0  0  0
  144.1540  159.0140  133.8310 C   0  0  0  0  0  0  0  0  0  0  0  0
  144.6500  157.7570  133.5640 C   0  0  0  0  0  0  0  0  0  0  0  0
  144.0100  156.5230  133.5570 C   0  0  0  0  0  0  0  0  0  0  0  0
  144.7740  155.3860  133.2440 C   0  0  0  0  0  0  0  0  0  0  0  0
  146.1650  155.4880  132.9610 C   0  0  0  0  0  0  0  0  0  0  0  0
  146.9120  154.2870  132.6070 N   0  0  2  0  0  0  0  0  0  0  0  0
  146.0920  153.0590  132.7030 C   0  0  0  0  0  0  0  0  0  0  0  0
  148.2180  154.2240  133.3300 C   0  0  0  0  0  0  0  0  0  0  0  0
  149.2380  153.3350  132.5940 C   0  0  0  0  0  0  0  0  0  0  0  0
  148.1100  153.7870  134.8060 C   0  0  0  0  0  0  0  0  0  0  0  0
  146.7720  156.7730  132.9770 C   0  0  0  0  0  0  0  0  0  0  0  0
  145.9790  157.8860  133.2690 C   0  0  0  0  0  0  0  0  0  0  0  0
  146.8183  161.0686  131.0326 H   0  0  0  0  0  0  0  0  0  0  0  0
  148.1834  160.5372  129.8143 H   0  0  0  0  0  0  0  0  0  0  0  0
  147.1580  161.6750  134.4860 H   0  0  0  0  0  0  0  0  0  0  0  0
  143.1229  159.2790  134.1078 H   0  0  0  0  0  0  0  0  0  0  0  0
  142.9381  156.4392  133.7894 H   0  0  0  0  0  0  0  0  0  0  0  0
  144.2883  154.3994  133.2172 H   0  0  0  0  0  0  0  0  0  0  0  0
  147.1400  154.3710  131.5880 H   0  0  0  0  0  0  0  0  0  0  0  0
  145.9262  152.8107  133.7617 H   0  0  0  0  0  0  0  0  0  0  0  0
  145.1232  153.2255  132.2093 H   0  0  0  0  0  0  0  0  0  0  0  0
  146.6170  152.2280  132.2093 H   0  0  0  0  0  0  0  0  0  0  0  0
  148.5763  155.2640  133.3367 H   0  0  0  0  0  0  0  0  0  0  0  0
  149.8544  152.7978  133.3298 H   0  0  0  0  0  0  0  0  0  0  0  0
  148.7039  152.6091  131.9633 H   0  0  0  0  0  0  0  0  0  0  0  0
  149.8841  153.9633  131.9633 H   0  0  0  0  0  0  0  0  0  0  0  0
  148.3223  154.6462  135.4592 H   0  0  0  0  0  0  0  0  0  0  0  0
  147.0934  153.4171  135.0055 H   0  0  0  0  0  0  0  0  0  0  0  0
  148.8372  152.9862  135.0055 H   0  0  0  0  0  0  0  0  0  0  0  0
  147.8449  156.8892  132.7638 H   0  0  0  0  0  0  0  0  0  0  0  0
  1  2  2  0
  2  3  1  0
  3  4  2  0
  3  5  1  0
  2  6  1  0
  6  7  2  0
  6  8  1  0
  8  9  1  0
  9 10  1  0
 10 11  1  0
 10 12  2  0
  9 13  2  0
 13 14  1  0
 14 15  2  0
 15 16  1  0
 16 17  2  0
 17 18  1  0
 18 19  1  0
 18 20  1  0
 20 21  1  0
 20 22  1  0
 17 23  1  0
 23 24  2  0
 24  8  1  0
 24 14  1  0
  1 25  1  0
  1 26  1  0
 11 27  1  0
 13 28  1  0
 15 29  1  0
 16 30  1  0
 18 31  1  6
 19 32  1  0
 19 33  1  0
 19 34  1  0
 20 35  1  0
 21 36  1  0
 21 37  1  0
 21 38  1  0
 22 39  1  0
 22 40  1  0
 22 41  1  0
 23 42  1  0
M  CHG  3   5  -1  11  -1  18   1
M  END
>  <UniqueID>  (67) 
65

>  <SMILES>  (67) 
C=C(C(=O)[O-])C(=O)n1c(C([NH-])=O)cc2ccc([N@H+](C)C(C)C)cc21

>  <Energy>  (67) 
89.24765517153031

>  <Genealogy>  (67) 
C=C(C(=O)[O-])C(=O)n1c(C([NH-])=O)cc2ccc([NH+](C)C(C)C)cc21 (protonated)
C=C(C(=O)[O-])C(=O)n1c(C([NH-])=O)cc2ccc([N@H+](C)C(C)C)cc21 (chirality)
C=C(C(=O)[O-])C(=O)n1c(C([NH-])=O)cc2ccc([N@H+](C)C(C)C)cc21 (3D coordinates assigned)
C=C(C(=O)[O-])C(=O)n1c(C([NH-])=O)cc2ccc([N@H+](C)C(C)C)cc21 (optimized conformer: 89.24765517153031 kcal/mol)

>  <smiles>  (67) 
C=C(C(=O)O)C(=O)n1c(C(N)=O)cc2ccc(N(C)C(C)C)cc21

>  <score_type>  (67) 
oracle

>  <origin>  (67) 
adg

>  <m_score__min__energy>  (67) 
-6.6900000000000004

>  <m_primary>  (67) 
energy

$$$$
70:0
     RDKit          3D

 49 50  0  0  0  0  0  0  0  0999 V2000
  140.2610  151.6230  138.5400 C   0  0  0  0  0  0  0  0  0  0  0  0
  141.2350  152.7100  138.6870 N   0  0  0  0  0  0  0  0  0  0  0  0
  142.6710  152.4100  138.7110 C   0  0  0  0  0  0  0  0  0  0  0  0
  140.7580  154.0660  138.8230 C   0  0  0  0  0  0  0  0  0  0  0  0
  139.5150  154.2840  138.8850 O   0  0  0  0  0  0  0  0  0  0  0  0
  141.7210  155.2250  138.9510 C   0  0  0  0  0  0  0  0  0  0  0  0
  141.4590  156.3010  137.9280 C   0  0  0  0  0  0  0  0  0  0  0  0
  141.5790  157.6670  138.2840 C   0  0  0  0  0  0  0  0  0  0  0  0
  141.2940  158.6770  137.3510 C   0  0  0  0  0  0  0  0  0  0  0  0
  140.8920  158.2920  136.0760 C   0  0  0  0  0  0  0  0  0  0  0  0
  140.5250  159.0610  134.9950 C   0  0  0  0  0  0  0  0  0  0  0  0
  140.1980  158.1540  133.9890 C   0  0  0  0  0  0  0  0  0  0  0  0
  139.8260  158.5660  132.6190 C   0  0  0  0  0  0  0  0  0  0  0  0
  138.5500  158.2420  132.0760 N   0  0  0  0  0  0  0  0  0  0  0  0
  140.6680  159.1670  131.9000 O   0  0  0  0  0  0  0  0  0  0  0  0
  140.3460  156.8730  134.4340 N   0  0  0  0  0  0  0  0  0  0  0  0
  140.0340  155.6540  133.7390 C   0  0  0  0  0  0  0  0  0  0  0  0
  139.0230  155.6000  132.9880 O   0  0  0  0  0  0  0  0  0  0  0  0
  140.8390  154.5250  133.9280 O   0  0  0  0  0  0  0  0  0  0  0  0
  140.9580  153.4590  132.9820 C   0  0  0  0  0  0  0  0  0  0  0  0
  141.8380  152.3080  133.5330 C   0  0  0  0  0  0  0  0  0  0  0  0
  143.3070  152.5230  133.1090 C   0  0  0  0  0  0  0  0  0  0  0  0
  141.3420  150.9730  132.9500 C   0  0  0  0  0  0  0  0  0  0  0  0
  141.7320  152.2410  135.0470 C   0  0  0  0  0  0  0  0  0  0  0  0
  141.0220  151.3570  135.5960 O   0  0  0  0  0  0  0  0  0  0  0  0
  142.4770  153.0990  135.8490 O   0  0  0  0  0  0  0  0  0  0  0  0
  140.7750  156.9760  135.7120 C   0  0  0  0  0  0  0  0  0  0  0  0
  141.0340  155.9490  136.6290 C   0  0  0  0  0  0  0  0  0  0  0  0
  139.9482  151.2739  139.5351 H   0  0  0  0  0  0  0  0  0  0  0  0
  139.3833  151.9894  137.9873 H   0  0  0  0  0  0  0  0  0  0  0  0
  140.7211  150.7906  137.9873 H   0  0  0  0  0  0  0  0  0  0  0  0
  143.0133  152.3385  139.7539 H   0  0  0  0  0  0  0  0  0  0  0  0
  142.8545  151.4541  138.1985 H   0  0  0  0  0  0  0  0  0  0  0  0
  143.2219  153.2125  138.1985 H   0  0  0  0  0  0  0  0  0  0  0  0
  141.6195  155.6601  139.9562 H   0  0  0  0  0  0  0  0  0  0  0  0
  142.7371  154.8391  138.7815 H   0  0  0  0  0  0  0  0  0  0  0  0
  141.8984  157.9390  139.3009 H   0  0  0  0  0  0  0  0  0  0  0  0
  141.3858  159.7397  137.6199 H   0  0  0  0  0  0  0  0  0  0  0  0
  140.4960  160.1591  134.9374 H   0  0  0  0  0  0  0  0  0  0  0  0
  137.9970  157.4370  132.4440 H   0  0  0  0  0  0  0  0  0  0  0  0
  139.9552  153.0665  132.7574 H   0  0  0  0  0  0  0  0  0  0  0  0
  141.4354  153.8547  132.0734 H   0  0  0  0  0  0  0  0  0  0  0  0
  143.9377  152.6153  134.0055 H   0  0  0  0  0  0  0  0  0  0  0  0
  143.6450  151.6648  132.5097 H   0  0  0  0  0  0  0  0  0  0  0  0
  143.3849  153.4421  132.5097 H   0  0  0  0  0  0  0  0  0  0  0  0
  141.0870  150.2866  133.7709 H   0  0  0  0  0  0  0  0  0  0  0  0
  140.4503  151.1519  132.3312 H   0  0  0  0  0  0  0  0  0  0  0  0
  142.1341  150.5263  132.3312 H   0  0  0  0  0  0  0  0  0  0  0  0
  140.9092  154.8940  136.3435 H   0  0  0  0  0  0  0  0  0  0  0  0
  1  2  1  0
  2  3  1  0
  2  4  1  0
  4  5  2  0
  4  6  1  0
  6  7  1  0
  7  8  2  0
  8  9  1  0
  9 10  2  0
 10 11  1  0
 11 12  2  0
 12 13  1  0
 13 14  1  0
 13 15  2  0
 12 16  1  0
 16 17  1  0
 17 18  2  0
 17 19  1  0
 19 20  1  0
 20 21  1  0
 21 22  1  0
 21 23  1  0
 21 24  1  0
 24 25  2  0
 24 26  1  0
 16 27  1  0
 27 28  2  0
 28  7  1  0
 27 10  1  0
  1 29  1  0
  1 30  1  0
  1 31  1  0
  3 32  1  0
  3 33  1  0
  3 34  1  0
  6 35  1  0
  6 36  1  0
  8 37  1  0
  9 38  1  0
 11 39  1  0
 14 40  1  0
 20 41  1  0
 20 42  1  0
 22 43  1  0
 22 44  1  0
 22 45  1  0
 23 46  1  0
 23 47  1  0
 23 48  1  0
 28 49  1  0
M  CHG  2  14  -1  26  -1
M  END
>  <UniqueID>  (68) 
66

>  <SMILES>  (68) 
CN(C)C(=O)Cc1ccc2cc(C([NH-])=O)n(C(=O)OCC(C)(C)C(=O)[O-])c2c1

>  <Energy>  (68) 
82.38411799342315

>  <Genealogy>  (68) 
CN(C)C(=O)Cc1ccc2cc(C([NH-])=O)n(C(=O)OCC(C)(C)C(=O)[O-])c2c1 (protonated)
CN(C)C(=O)Cc1ccc2cc(C([NH-])=O)n(C(=O)OCC(C)(C)C(=O)[O-])c2c1 (3D coordinates assigned)
CN(C)C(=O)Cc1ccc2cc(C([NH-])=O)n(C(=O)OCC(C)(C)C(=O)[O-])c2c1 (optimized conformer: 82.38411799342315 kcal/mol)

>  <smiles>  (68) 
CN(C)C(=O)Cc1ccc2cc(C(N)=O)n(C(=O)OCC(C)(C)C(=O)O)c2c1

>  <score_type>  (68) 
oracle

>  <origin>  (68) 
adg

>  <m_score__min__energy>  (68) 
-7.9900000000000002

>  <m_primary>  (68) 
energy

$$$$
71:0
     RDKit          3D

 35 36  0  0  0  0  0  0  0  0999 V2000
  149.7840  157.5120  132.1880 N   0  0  0  0  0  0  0  0  0  0  0  0
  149.1800  158.7890  132.3760 C   0  0  0  0  0  0  0  0  0  0  0  0
  149.8730  159.8280  132.2170 O   0  0  0  0  0  0  0  0  0  0  0  0
  147.7440  158.8810  132.7140 C   0  0  0  0  0  0  0  0  0  0  0  0
  147.0360  160.0820  132.7380 C   0  0  0  0  0  0  0  0  0  0  0  0
  145.7770  159.7550  133.1860 C   0  0  0  0  0  0  0  0  0  0  0  0
  144.6660  160.5640  133.4040 C   0  0  0  0  0  0  0  0  0  0  0  0
  143.4850  159.9540  133.8580 C   0  0  0  0  0  0  0  0  0  0  0  0
  143.4320  158.5540  134.0690 C   0  0  0  0  0  0  0  0  0  0  0  0
  142.1660  157.9150  134.5810 C   0  0  0  0  0  0  0  0  0  0  0  0
  141.9400  158.2160  136.0670 C   0  0  0  0  0  0  0  0  0  0  0  0
  140.6270  158.8980  136.3000 C   0  0  0  0  0  0  0  0  0  0  0  0
  140.5940  160.0900  136.7040 O   0  0  0  0  0  0  0  0  0  0  0  0
  139.4380  158.2320  136.0300 O   0  0  0  0  0  0  0  0  0  0  0  0
  144.5810  157.7650  133.8420 C   0  0  0  0  0  0  0  0  0  0  0  0
  145.7500  158.4030  133.4110 C   0  0  0  0  0  0  0  0  0  0  0  0
  146.9490  157.8510  133.1240 N   0  0  0  0  0  0  0  0  0  0  0  0
  147.2810  156.4550  133.2010 C   0  0  0  0  0  0  0  0  0  0  0  0
  147.3720  155.7700  132.1460 O   0  0  0  0  0  0  0  0  0  0  0  0
  147.4740  155.8570  134.4520 O   0  0  0  0  0  0  0  0  0  0  0  0
  146.9850  154.5610  134.7840 C   0  0  0  0  0  0  0  0  0  0  0  0
  147.4790  154.1490  136.1340 C   0  0  0  0  0  0  0  0  0  0  0  0
  148.3370  154.8470  136.7370 O   0  0  0  0  0  0  0  0  0  0  0  0
  146.9700  153.0080  136.7410 O   0  0  0  0  0  0  0  0  0  0  0  0
  149.2570  156.7300  131.7410 H   0  0  0  0  0  0  0  0  0  0  0  0
  147.4057  161.0795  132.4581 H   0  0  0  0  0  0  0  0  0  0  0  0
  144.7113  161.6486  133.2262 H   0  0  0  0  0  0  0  0  0  0  0  0
  142.5935  160.5686  134.0514 H   0  0  0  0  0  0  0  0  0  0  0  0
  141.3128  158.3026  134.0050 H   0  0  0  0  0  0  0  0  0  0  0  0
  142.2594  156.8254  134.4621 H   0  0  0  0  0  0  0  0  0  0  0  0
  141.9553  157.2704  136.6287 H   0  0  0  0  0  0  0  0  0  0  0  0
  142.7412  158.8889  136.4066 H   0  0  0  0  0  0  0  0  0  0  0  0
  144.5579  156.6766  133.9999 H   0  0  0  0  0  0  0  0  0  0  0  0
  145.8852  154.5789  134.7902 H   0  0  0  0  0  0  0  0  0  0  0  0
  147.3464  153.8401  134.0358 H   0  0  0  0  0  0  0  0  0  0  0  0
  1  2  1  0
  2  3  2  0
  2  4  1  0
  4  5  2  0
  5  6  1  0
  6  7  2  0
  7  8  1  0
  8  9  2  0
  9 10  1  0
 10 11  1  0
 11 12  1  0
 12 13  2  0
 12 14  1  0
  9 15  1  0
 15 16  2  0
 16 17  1  0
 17 18  1  0
 18 19  2  0
 18 20  1  0
 20 21  1  0
 21 22  1  0
 22 23  2  0
 22 24  1  0
 17  4  1  0
 16  6  1  0
  1 25  1  0
  5 26  1  0
  7 27  1  0
  8 28  1  0
 10 29  1  0
 10 30  1  0
 11 31  1  0
 11 32  1  0
 15 33  1  0
 21 34  1  0
 21 35  1  0
M  CHG  3   1  -1  14  -1  24  -1
M  END
>  <UniqueID>  (69) 
67

>  <SMILES>  (69) 
[NH-]C(=O)c1cc2ccc(CCC(=O)[O-])cc2n1C(=O)OCC(=O)[O-]

>  <Energy>  (69) 
68.08672742148852

>  <Genealogy>  (69) 
[NH-]C(=O)c1cc2ccc(CCC(=O)[O-])cc2n1C(=O)OCC(=O)[O-] (protonated)
[NH-]C(=O)c1cc2ccc(CCC(=O)[O-])cc2n1C(=O)OCC(=O)[O-] (3D coordinates assigned)
[NH-]C(=O)c1cc2ccc(CCC(=O)[O-])cc2n1C(=O)OCC(=O)[O-] (optimized conformer: 68.08672742148852 kcal/mol)

>  <smiles>  (69) 
NC(=O)c1cc2ccc(CCC(=O)O)cc2n1C(=O)OCC(=O)O

>  <score_type>  (69) 
oracle

>  <origin>  (69) 
adg

>  <m_score__min__energy>  (69) 
-6.6299999999999999

>  <m_primary>  (69) 
energy

$$$$
72:0
     RDKit          3D

 35 36  0  0  0  0  0  0  0  0999 V2000
  142.4450  155.4330  135.5070 C   0  0  0  0  0  0  0  0  0  0  0  0
  141.9770  156.6310  134.8030 N   0  0  0  0  0  0  0  0  0  0  0  0
  140.5660  157.0140  134.9270 C   0  0  0  0  0  0  0  0  0  0  0  0
  140.3450  157.7670  136.2010 C   0  0  0  0  0  0  0  0  0  0  0  0
  141.3160  158.3110  136.7920 O   0  0  0  0  0  0  0  0  0  0  0  0
  139.0630  157.8980  136.7180 O   0  0  0  0  0  0  0  0  0  0  0  0
  142.9330  157.5770  134.2870 C   0  0  0  0  0  0  0  0  0  0  0  0
  142.5120  158.8770  133.9040 C   0  0  0  0  0  0  0  0  0  0  0  0
  143.4300  159.8080  133.3890 C   0  0  0  0  0  0  0  0  0  0  0  0
  144.7600  159.4160  133.2730 C   0  0  0  0  0  0  0  0  0  0  0  0
  145.8510  160.1080  132.7960 C   0  0  0  0  0  0  0  0  0  0  0  0
  146.9260  159.2270  132.9120 C   0  0  0  0  0  0  0  0  0  0  0  0
  148.3280  159.5780  132.5940 C   0  0  0  0  0  0  0  0  0  0  0  0
  149.4150  158.9160  133.2420 N   0  0  0  0  0  0  0  0  0  0  0  0
  148.5760  160.4650  131.7340 O   0  0  0  0  0  0  0  0  0  0  0  0
  146.5110  158.0390  133.4350 N   0  0  0  0  0  0  0  0  0  0  0  0
  147.2930  156.8600  133.6760 C   0  0  0  0  0  0  0  0  0  0  0  0
  148.0710  156.8180  134.6660 O   0  0  0  0  0  0  0  0  0  0  0  0
  147.1420  155.6490  132.8070 C   0  0  0  0  0  0  0  0  0  0  0  0
  148.7210  154.8520  132.6070 Cl  0  0  0  0  0  0  0  0  0  0  0  0
  145.1870  158.1710  133.6530 C   0  0  0  0  0  0  0  0  0  0  0  0
  144.2950  157.2190  134.1550 C   0  0  0  0  0  0  0  0  0  0  0  0
  142.3808  155.5972  136.5928 H   0  0  0  0  0  0  0  0  0  0  0  0
  141.8161  154.5747  135.2282 H   0  0  0  0  0  0  0  0  0  0  0  0
  143.4892  155.2283  135.2282 H   0  0  0  0  0  0  0  0  0  0  0  0
  140.2862  157.6512  134.0751 H   0  0  0  0  0  0  0  0  0  0  0  0
  139.9467  156.1049  134.9353 H   0  0  0  0  0  0  0  0  0  0  0  0
  141.4543  159.1593  134.0116 H   0  0  0  0  0  0  0  0  0  0  0  0
  143.1072  160.8153  133.0870 H   0  0  0  0  0  0  0  0  0  0  0  0
  145.8704  161.1365  132.4065 H   0  0  0  0  0  0  0  0  0  0  0  0
  149.2530  158.2270  134.0090 H   0  0  0  0  0  0  0  0  0  0  0  0
  150.3990  159.1400  132.9730 H   0  0  0  0  0  0  0  0  0  0  0  0
  146.4357  154.9483  133.2762 H   0  0  0  0  0  0  0  0  0  0  0  0
  146.7608  155.9538  131.8212 H   0  0  0  0  0  0  0  0  0  0  0  0
  144.6439  156.2156  134.4405 H   0  0  0  0  0  0  0  0  0  0  0  0
  1  2  1  0
  2  3  1  0
  3  4  1  0
  4  5  2  0
  4  6  1  0
  2  7  1  0
  7  8  2  0
  8  9  1  0
  9 10  2  0
 10 11  1  0
 11 12  2  0
 12 13  1  0
 13 14  1  0
 13 15  2  0
 12 16  1  0
 16 17  1  0
 17 18  2  0
 17 19  1  0
 19 20  1  0
 16 21  1  0
 21 22  2  0
 22  7  1  0
 21 10  1  0
  1 23  1  0
  1 24  1  0
  1 25  1  0
  3 26  1  0
  3 27  1  0
  8 28  1  0
  9 29  1  0
 11 30  1  0
 14 31  1  0
 14 32  1  0
 19 33  1  0
 19 34  1  0
 22 35  1  0
M  CHG  1   6  -1
M  END
>  <UniqueID>  (70) 
68

>  <SMILES>  (70) 
CN(CC(=O)[O-])c1ccc2cc(C(N)=O)n(C(=O)CCl)c2c1

>  <Energy>  (70) 
75.36872737631658

>  <Genealogy>  (70) 
CN(CC(=O)[O-])c1ccc2cc(C(N)=O)n(C(=O)CCl)c2c1 (protonated)
CN(CC(=O)[O-])c1ccc2cc(C(N)=O)n(C(=O)CCl)c2c1 (3D coordinates assigned)
CN(CC(=O)[O-])c1ccc2cc(C(N)=O)n(C(=O)CCl)c2c1 (optimized conformer: 75.36872737631658 kcal/mol)

>  <smiles>  (70) 
CN(CC(=O)O)c1ccc2cc(C(N)=O)n(C(=O)CCl)c2c1

>  <score_type>  (70) 
oracle

>  <origin>  (70) 
adg

>  <m_score__min__energy>  (70) 
-6.4800000000000004

>  <m_primary>  (70) 
energy

$$$$
73:0
     RDKit          3D

 35 36  0  0  0  0  0  0  0  0999 V2000
  144.7310  153.6400  131.5770 C   0  0  0  0  0  0  0  0  0  0  0  0
  144.2270  155.0140  131.5360 N   0  0  0  0  0  0  0  0  0  0  0  0
  143.6600  155.3730  132.8110 C   0  0  0  0  0  0  0  0  0  0  0  0
  143.4090  154.3750  133.7880 C   0  0  0  0  0  0  0  0  0  0  0  0
  142.8430  154.7110  135.0290 C   0  0  0  0  0  0  0  0  0  0  0  0
  142.5210  156.0450  135.2590 C   0  0  0  0  0  0  0  0  0  0  0  0
  141.9810  156.6460  136.3720 C   0  0  0  0  0  0  0  0  0  0  0  0
  141.8760  157.9980  136.0500 C   0  0  0  0  0  0  0  0  0  0  0  0
  141.2590  159.0010  136.9430 C   0  0  0  0  0  0  0  0  0  0  0  0
  140.5860  160.1280  136.3850 N   0  0  0  0  0  0  0  0  0  0  0  0
  141.3470  158.8940  138.1940 O   0  0  0  0  0  0  0  0  0  0  0  0
  142.3410  158.2250  134.7890 N   0  0  0  0  0  0  0  0  0  0  0  0
  142.4570  159.4810  134.1010 C   0  0  0  0  0  0  0  0  0  0  0  0
  143.5410  160.1250  134.1420 O   0  0  0  0  0  0  0  0  0  0  0  0
  141.3710  159.9730  133.3690 O   0  0  0  0  0  0  0  0  0  0  0  0
  140.2930  159.1520  132.9350 C   0  0  2  0  0  0  0  0  0  0  0  0
  139.2770  160.1150  131.8300 Cl  0  0  0  0  0  0  0  0  0  0  0  0
  139.5280  158.7620  134.0610 O   0  0  0  0  0  0  0  0  0  0  0  0
  139.1480  157.4100  133.9450 C   0  0  0  0  0  0  0  0  0  0  0  0
  142.7300  157.0200  134.3170 C   0  0  0  0  0  0  0  0  0  0  0  0
  143.3110  156.7170  133.0800 C   0  0  0  0  0  0  0  0  0  0  0  0
  144.8472  153.3232  132.6239 H   0  0  0  0  0  0  0  0  0  0  0  0
  144.0190  152.9730  131.0689 H   0  0  0  0  0  0  0  0  0  0  0  0
  145.7054  153.5916  131.0689 H   0  0  0  0  0  0  0  0  0  0  0  0
  143.5030  155.0940  130.7840 H   0  0  0  0  0  0  0  0  0  0  0  0
  145.0140  155.6620  131.2950 H   0  0  0  0  0  0  0  0  0  0  0  0
  143.6605  153.3263  133.5711 H   0  0  0  0  0  0  0  0  0  0  0  0
  142.6600  153.9433  135.7952 H   0  0  0  0  0  0  0  0  0  0  0  0
  141.6928  156.1619  137.3168 H   0  0  0  0  0  0  0  0  0  0  0  0
  140.4780  160.2310  135.3510 H   0  0  0  0  0  0  0  0  0  0  0  0
  140.6688  158.2543  132.4223 H   0  0  0  0  0  0  0  0  0  0  0  0
  139.0260  156.9760  134.9484 H   0  0  0  0  0  0  0  0  0  0  0  0
  138.1960  157.3423  133.3980 H   0  0  0  0  0  0  0  0  0  0  0  0
  139.9253  156.8563  133.3980 H   0  0  0  0  0  0  0  0  0  0  0  0
  143.4919  157.5056  132.3347 H   0  0  0  0  0  0  0  0  0  0  0  0
  1  2  1  0
  2  3  1  0
  3  4  2  0
  4  5  1  0
  5  6  2  0
  6  7  1  0
  7  8  2  0
  8  9  1  0
  9 10  1  0
  9 11  2  0
  8 12  1  0
 12 13  1  0
 13 14  2  0
 13 15  1  0
 15 16  1  0
 16 17  1  0
 16 18  1  0
 18 19  1  0
 12 20  1  0
 20 21  2  0
 21  3  1  0
 20  6  1  0
  1 22  1  0
  1 23  1  0
  1 24  1  0
  2 25  1  0
  2 26  1  0
  4 27  1  0
  5 28  1  0
  7 29  1  0
 10 30  1  0
 16 31  1  6
 19 32  1  0
 19 33  1  0
 19 34  1  0
 21 35  1  0
M  CHG  2   2   1  10  -1
M  END
>  <UniqueID>  (71) 
69

>  <SMILES>  (71) 
C[NH2+]c1ccc2cc(C([NH-])=O)n(C(=O)O[C@H](Cl)OC)c2c1

>  <Energy>  (71) 
73.50048366062117

>  <Genealogy>  (71) 
C[NH2+]c1ccc2cc(C([NH-])=O)n(C(=O)OC(Cl)OC)c2c1 (protonated)
C[NH2+]c1ccc2cc(C([NH-])=O)n(C(=O)O[C@H](Cl)OC)c2c1 (chirality)
C[NH2+]c1ccc2cc(C([NH-])=O)n(C(=O)O[C@H](Cl)OC)c2c1 (3D coordinates assigned)
C[NH2+]c1ccc2cc(C([NH-])=O)n(C(=O)O[C@H](Cl)OC)c2c1 (optimized conformer: 73.50048366062117 kcal/mol)

>  <smiles>  (71) 
CNc1ccc2cc(C(N)=O)n(C(=O)OC(Cl)OC)c2c1

>  <score_type>  (71) 
oracle

>  <origin>  (71) 
adg

>  <m_score__min__energy>  (71) 
-5.7999999999999998

>  <m_primary>  (71) 
energy

$$$$
74:0
     RDKit          3D

 47 48  0  0  0  0  0  0  0  0999 V2000
  139.1860  159.7450  131.5420 C   0  0  0  0  0  0  0  0  0  0  0  0
  138.7300  158.3190  131.8310 C   0  0  0  0  0  0  0  0  0  0  0  0
  139.4300  157.7730  133.0460 C   0  0  0  0  0  0  0  0  0  0  0  0
  139.4420  158.5150  134.2530 C   0  0  0  0  0  0  0  0  0  0  0  0
  140.0750  158.0060  135.4000 C   0  0  0  0  0  0  0  0  0  0  0  0
  140.6710  156.7510  135.3130 C   0  0  0  0  0  0  0  0  0  0  0  0
  141.3660  156.0340  136.2600 C   0  0  0  0  0  0  0  0  0  0  0  0
  141.7380  154.8510  135.6270 C   0  0  0  0  0  0  0  0  0  0  0  0
  142.4320  153.7430  136.3150 C   0  0  0  0  0  0  0  0  0  0  0  0
  143.6590  153.9900  136.9990 N   0  0  0  0  0  0  0  0  0  0  0  0
  141.9320  152.5880  136.3390 O   0  0  0  0  0  0  0  0  0  0  0  0
  141.2960  154.8370  134.3380 N   0  0  0  0  0  0  0  0  0  0  0  0
  141.5470  153.8380  133.3370 C   0  0  0  0  0  0  0  0  0  0  0  0
  140.5930  153.3910  132.6420 O   0  0  0  0  0  0  0  0  0  0  0  0
  142.8520  153.3890  133.1150 O   0  0  0  0  0  0  0  0  0  0  0  0
  143.9680  154.2720  133.0530 C   0  0  0  0  0  0  0  0  0  0  0  0
  144.5930  154.3430  134.3300 O   0  0  0  0  0  0  0  0  0  0  0  0
  145.3540  155.4390  134.7500 C   0  0  0  0  0  0  0  0  0  0  0  0
  146.2670  155.2850  135.6080 O   0  0  0  0  0  0  0  0  0  0  0  0
  145.0980  156.7450  134.2000 N   0  0  0  0  0  0  0  0  0  0  0  0
  146.1470  157.4280  133.4380 C   0  0  0  0  0  0  0  0  0  0  0  0
  143.8030  157.4030  134.4330 C   0  0  0  0  0  0  0  0  0  0  0  0
  143.4390  158.3350  133.2720 C   0  0  0  0  0  0  0  0  0  0  0  0
  143.2900  159.7500  133.7400 C   0  0  0  0  0  0  0  0  0  0  0  0
  144.3010  160.4920  133.8460 O   0  0  0  0  0  0  0  0  0  0  0  0
  142.0390  160.2360  134.0990 O   0  0  0  0  0  0  0  0  0  0  0  0
  140.6430  156.0070  134.1610 C   0  0  0  0  0  0  0  0  0  0  0  0
  140.0350  156.4970  132.9990 C   0  0  0  0  0  0  0  0  0  0  0  0
  139.3555  160.2751  132.4908 H   0  0  0  0  0  0  0  0  0  0  0  0
  140.1212  159.7207  130.9634 H   0  0  0  0  0  0  0  0  0  0  0  0
  138.4103  160.2679  130.9634 H   0  0  0  0  0  0  0  0  0  0  0  0
  137.6443  158.3159  132.0078 H   0  0  0  0  0  0  0  0  0  0  0  0
  138.9775  157.6863  130.9659 H   0  0  0  0  0  0  0  0  0  0  0  0
  138.9513  159.4987  134.2927 H   0  0  0  0  0  0  0  0  0  0  0  0
  140.0987  158.5814  136.3372 H   0  0  0  0  0  0  0  0  0  0  0  0
  141.5817  156.3321  137.2966 H   0  0  0  0  0  0  0  0  0  0  0  0
  144.4660  154.4320  136.5060 H   0  0  0  0  0  0  0  0  0  0  0  0
  144.6901  153.8977  132.3124 H   0  0  0  0  0  0  0  0  0  0  0  0
  143.6243  155.2746  132.7585 H   0  0  0  0  0  0  0  0  0  0  0  0
  146.8614  157.8931  134.1332 H   0  0  0  0  0  0  0  0  0  0  0  0
  146.6736  156.6991  132.8044 H   0  0  0  0  0  0  0  0  0  0  0  0
  145.6935  158.2044  132.8044 H   0  0  0  0  0  0  0  0  0  0  0  0
  143.0228  156.6342  134.5343 H   0  0  0  0  0  0  0  0  0  0  0  0
  143.8772  158.0032  135.3519 H   0  0  0  0  0  0  0  0  0  0  0  0
  144.2338  158.2899  132.5129 H   0  0  0  0  0  0  0  0  0  0  0  0
  142.4790  158.0052  132.8482 H   0  0  0  0  0  0  0  0  0  0  0  0
  140.0285  155.9036  132.0728 H   0  0  0  0  0  0  0  0  0  0  0  0
  1  2  1  0
  2  3  1  0
  3  4  2  0
  4  5  1  0
  5  6  2  0
  6  7  1  0
  7  8  2  0
  8  9  1  0
  9 10  1  0
  9 11  2  0
  8 12  1  0
 12 13  1  0
 13 14  2  0
 13 15  1  0
 15 16  1  0
 16 17  1  0
 17 18  1  0
 18 19  2  0
 18 20  1  0
 20 21  1  0
 20 22  1  0
 22 23  1  0
 23 24  1  0
 24 25  2  0
 24 26  1  0
 12 27  1  0
 27 28  2  0
 28  3  1  0
 27  6  1  0
  1 29  1  0
  1 30  1  0
  1 31  1  0
  2 32  1  0
  2 33  1  0
  4 34  1  0
  5 35  1  0
  7 36  1  0
 10 37  1  0
 16 38  1  0
 16 39  1  0
 21 40  1  0
 21 41  1  0
 21 42  1  0
 22 43  1  0
 22 44  1  0
 23 45  1  0
 23 46  1  0
 28 47  1  0
M  CHG  2  10  -1  26  -1
M  END
>  <UniqueID>  (72) 
70

>  <SMILES>  (72) 
CCc1ccc2cc(C([NH-])=O)n(C(=O)OCOC(=O)N(C)CCC(=O)[O-])c2c1

>  <Energy>  (72) 
72.42865291328764

>  <Genealogy>  (72) 
CCc1ccc2cc(C([NH-])=O)n(C(=O)OCOC(=O)N(C)CCC(=O)[O-])c2c1 (protonated)
CCc1ccc2cc(C([NH-])=O)n(C(=O)OCOC(=O)N(C)CCC(=O)[O-])c2c1 (3D coordinates assigned)
CCc1ccc2cc(C([NH-])=O)n(C(=O)OCOC(=O)N(C)CCC(=O)[O-])c2c1 (optimized conformer: 72.42865291328764 kcal/mol)

>  <smiles>  (72) 
CCc1ccc2cc(C(N)=O)n(C(=O)OCOC(=O)N(C)CCC(=O)O)c2c1

>  <score_type>  (72) 
oracle

>  <origin>  (72) 
adg

>  <m_score__min__energy>  (72) 
-6.75

>  <m_primary>  (72) 
energy

$$$$
75:0
     RDKit          3D

 33 34  0  0  0  0  0  0  0  0999 V2000
  142.7840  160.2580  134.3900 N   0  0  0  0  0  0  0  0  0  0  0  0
  144.0480  160.6930  133.8910 C   0  0  0  0  0  0  0  0  0  0  0  0
  144.2770  161.9240  133.7590 O   0  0  0  0  0  0  0  0  0  0  0  0
  145.1170  159.7220  133.6080 C   0  0  0  0  0  0  0  0  0  0  0  0
  146.4240  160.1000  133.3310 C   0  0  0  0  0  0  0  0  0  0  0  0
  147.1040  158.9260  133.1200 C   0  0  0  0  0  0  0  0  0  0  0  0
  148.4460  158.7160  132.8180 C   0  0  0  0  0  0  0  0  0  0  0  0
  148.8870  157.3920  132.6620 C   0  0  0  0  0  0  0  0  0  0  0  0
  147.9910  156.3100  132.8300 C   0  0  0  0  0  0  0  0  0  0  0  0
  148.4710  154.9010  132.6390 C   0  0  0  0  0  0  0  0  0  0  0  0
  149.8450  154.8990  132.4860 F   0  0  0  0  0  0  0  0  0  0  0  0
  146.6320  156.5600  133.1210 C   0  0  0  0  0  0  0  0  0  0  0  0
  146.2110  157.8910  133.2570 C   0  0  0  0  0  0  0  0  0  0  0  0
  144.9740  158.3660  133.5470 N   0  0  0  0  0  0  0  0  0  0  0  0
  143.7430  157.6170  133.6270 C   0  0  0  0  0  0  0  0  0  0  0  0
  143.6640  156.6040  134.3740 O   0  0  0  0  0  0  0  0  0  0  0  0
  142.6400  157.9880  132.8520 O   0  0  0  0  0  0  0  0  0  0  0  0
  141.2940  157.6750  133.2040 C   0  0  0  0  0  0  0  0  0  0  0  0
  140.6450  158.7900  133.7730 O   0  0  0  0  0  0  0  0  0  0  0  0
  140.6250  158.6210  135.4720 P   0  0  0  0  0  0  0  0  0  0  0  0
  141.7360  157.6810  135.8800 O   0  0  0  0  0  0  0  0  0  0  0  0
  140.8780  160.1200  136.2130 O   0  0  0  0  0  0  0  0  0  0  0  0
  139.1470  157.9770  135.9870 O   0  0  0  0  0  0  0  0  0  0  0  0
  142.6160  159.2510  134.6090 H   0  0  0  0  0  0  0  0  0  0  0  0
  142.0260  160.9500  134.5800 H   0  0  0  0  0  0  0  0  0  0  0  0
  146.8284  161.1221  133.2894 H   0  0  0  0  0  0  0  0  0  0  0  0
  149.1404  159.5616  132.7049 H   0  0  0  0  0  0  0  0  0  0  0  0
  149.9386  157.1943  132.4069 H   0  0  0  0  0  0  0  0  0  0  0  0
  148.1991  154.2986  133.5183 H   0  0  0  0  0  0  0  0  0  0  0  0
  148.0015  154.4722  131.7414 H   0  0  0  0  0  0  0  0  0  0  0  0
  145.9198  155.7299  133.2383 H   0  0  0  0  0  0  0  0  0  0  0  0
  140.7492  157.3650  132.3000 H   0  0  0  0  0  0  0  0  0  0  0  0
  141.3070  156.8627  133.9456 H   0  0  0  0  0  0  0  0  0  0  0  0
  1  2  1  0
  2  3  2  0
  2  4  1  0
  4  5  2  0
  5  6  1  0
  6  7  2  0
  7  8  1  0
  8  9  2  0
  9 10  1  0
 10 11  1  0
  9 12  1  0
 12 13  2  0
 13 14  1  0
 14 15  1  0
 15 16  2  0
 15 17  1  0
 17 18  1  0
 18 19  1  0
 19 20  1  0
 20 21  2  0
 20 22  1  0
 20 23  1  0
 14  4  1  0
 13  6  1  0
  1 24  1  0
  1 25  1  0
  5 26  1  0
  7 27  1  0
  8 28  1  0
 10 29  1  0
 10 30  1  0
 12 31  1  0
 18 32  1  0
 18 33  1  0
M  CHG  2  22  -1  23  -1
M  END
>  <UniqueID>  (73) 
71

>  <SMILES>  (73) 
NC(=O)c1cc2ccc(CF)cc2n1C(=O)OCOP(=O)([O-])[O-]

>  <Energy>  (73) 
72.45302090325956

>  <Genealogy>  (73) 
NC(=O)c1cc2ccc(CF)cc2n1C(=O)OCOP(=O)([O-])[O-] (protonated)
NC(=O)c1cc2ccc(CF)cc2n1C(=O)OCOP(=O)([O-])[O-] (3D coordinates assigned)
NC(=O)c1cc2ccc(CF)cc2n1C(=O)OCOP(=O)([O-])[O-] (optimized conformer: 72.45302090325956 kcal/mol)

>  <smiles>  (73) 
NC(=O)c1cc2ccc(CF)cc2n1C(=O)OCOP(=O)(O)O

>  <score_type>  (73) 
oracle

>  <origin>  (73) 
adg

>  <m_score__min__energy>  (73) 
-6.4400000000000004

>  <m_primary>  (73) 
energy

$$$$
77:0
     RDKit          3D

 51 54  0  0  0  0  0  0  0  0999 V2000
  140.8260  156.6600  133.4660 C   0  0  0  0  0  0  0  0  0  0  0  0
  141.2270  158.1370  133.3410 C   0  0  0  0  0  0  0  0  0  0  0  0
  140.9740  158.8370  134.6900 C   0  0  0  0  0  0  0  0  0  0  0  0
  140.3890  158.7890  132.2250 C   0  0  0  0  0  0  0  0  0  0  0  0
  142.6230  158.1680  133.0080 O   0  0  0  0  0  0  0  0  0  0  0  0
  143.6940  157.9940  133.8970 C   0  0  0  0  0  0  0  0  0  0  0  0
  143.5570  157.3200  134.9530 O   0  0  0  0  0  0  0  0  0  0  0  0
  144.9580  158.6140  133.6100 N   0  0  0  0  0  0  0  0  0  0  0  0
  145.2510  159.9450  133.6080 C   0  0  0  0  0  0  0  0  0  0  0  0
  144.2770  161.0460  133.7520 C   0  0  0  0  0  0  0  0  0  0  0  0
  142.9200  160.8490  133.3610 N   0  0  0  0  0  0  0  0  0  0  0  0
  144.6190  162.1500  134.2530 O   0  0  0  0  0  0  0  0  0  0  0  0
  146.6080  160.1470  133.3680 C   0  0  0  0  0  0  0  0  0  0  0  0
  147.1430  158.8880  133.2150 C   0  0  0  0  0  0  0  0  0  0  0  0
  148.4560  158.4960  132.9690 C   0  0  0  0  0  0  0  0  0  0  0  0
  148.7280  157.1210  132.8870 C   0  0  0  0  0  0  0  0  0  0  0  0
  147.6920  156.1730  133.0590 C   0  0  0  0  0  0  0  0  0  0  0  0
  147.9830  154.7770  132.9840 N   0  0  0  0  0  0  0  0  0  0  0  0
  147.5180  153.5310  133.6240 C   0  0  0  0  0  0  0  0  0  0  0  0
  148.4480  152.6120  132.8700 C   0  0  0  0  0  0  0  0  0  0  0  0
  147.7650  151.7970  131.9540 O   0  0  0  0  0  0  0  0  0  0  0  0
  149.6020  151.8520  133.5800 C   0  0  0  0  0  0  0  0  0  0  0  0
  150.3810  150.8640  132.7250 C   0  0  0  0  0  0  0  0  0  0  0  0
  149.4720  150.3560  133.8390 C   0  0  0  0  0  0  0  0  0  0  0  0
  148.8970  153.8940  132.2320 C   0  0  0  0  0  0  0  0  0  0  0  0
  146.3730  156.6030  133.3070 C   0  0  0  0  0  0  0  0  0  0  0  0
  146.1270  157.9800  133.3650 C   0  0  0  0  0  0  0  0  0  0  0  0
  140.7524  156.3888  134.5295 H   0  0  0  0  0  0  0  0  0  0  0  0
  139.8524  156.5019  132.9790 H   0  0  0  0  0  0  0  0  0  0  0  0
  141.5860  156.0313  132.9790 H   0  0  0  0  0  0  0  0  0  0  0  0
  141.2224  158.1496  135.5121 H   0  0  0  0  0  0  0  0  0  0  0  0
  141.6041  159.7359  134.7605 H   0  0  0  0  0  0  0  0  0  0  0  0
  139.9148  159.1253  134.7605 H   0  0  0  0  0  0  0  0  0  0  0  0
  139.5965  159.4056  132.6742 H   0  0  0  0  0  0  0  0  0  0  0  0
  141.0376  159.4224  131.6019 H   0  0  0  0  0  0  0  0  0  0  0  0
  139.9345  158.0046  131.6019 H   0  0  0  0  0  0  0  0  0  0  0  0
  142.6790  160.2450  132.5430 H   0  0  0  0  0  0  0  0  0  0  0  0
  147.1394  161.1085  133.3125 H   0  0  0  0  0  0  0  0  0  0  0  0
  149.2557  159.2406  132.8427 H   0  0  0  0  0  0  0  0  0  0  0  0
  149.7541  156.7783  132.6876 H   0  0  0  0  0  0  0  0  0  0  0  0
  147.6956  153.5186  134.7095 H   0  0  0  0  0  0  0  0  0  0  0  0
  146.4417  153.3104  133.5712 H   0  0  0  0  0  0  0  0  0  0  0  0
  147.1240  152.3890  131.4810 H   0  0  0  0  0  0  0  0  0  0  0  0
  149.8405  152.7138  134.2207 H   0  0  0  0  0  0  0  0  0  0  0  0
  150.1014  150.7075  131.6727 H   0  0  0  0  0  0  0  0  0  0  0  0
  151.4409  150.7286  132.4636 H   0  0  0  0  0  0  0  0  0  0  0  0
  148.5363  149.8337  133.5907 H   0  0  0  0  0  0  0  0  0  0  0  0
  149.6035  149.7030  134.7144 H   0  0  0  0  0  0  0  0  0  0  0  0
  149.9566  154.1160  132.4268 H   0  0  0  0  0  0  0  0  0  0  0  0
  148.8524  153.9478  131.1342 H   0  0  0  0  0  0  0  0  0  0  0  0
  145.5594  155.8769  133.4510 H   0  0  0  0  0  0  0  0  0  0  0  0
  1  2  1  0
  2  3  1  0
  2  4  1  0
  2  5  1  0
  5  6  1  0
  6  7  2  0
  6  8  1  0
  8  9  1  0
  9 10  1  0
 10 11  1  0
 10 12  2  0
  9 13  2  0
 13 14  1  0
 14 15  2  0
 15 16  1  0
 16 17  2  0
 17 18  1  0
 18 19  1  0
 19 20  1  0
 20 21  1  0
 20 22  1  0
 22 23  1  0
 23 24  1  0
 20 25  1  0
 17 26  1  0
 26 27  2  0
 27  8  1  0
 27 14  1  0
 25 18  1  0
 24 22  1  0
  1 28  1  0
  1 29  1  0
  1 30  1  0
  3 31  1  0
  3 32  1  0
  3 33  1  0
  4 34  1  0
  4 35  1  0
  4 36  1  0
 11 37  1  0
 13 38  1  0
 15 39  1  0
 16 40  1  0
 19 41  1  0
 19 42  1  0
 21 43  1  0
 22 44  1  0
 23 45  1  0
 23 46  1  0
 24 47  1  0
 24 48  1  0
 25 49  1  0
 25 50  1  0
 26 51  1  0
M  CHG  1  11  -1
M  END
>  <UniqueID>  (74) 
72

>  <SMILES>  (74) 
CC(C)(C)OC(=O)n1c(C([NH-])=O)cc2ccc(N3CC(O)(C4CC4)C3)cc21

>  <Energy>  (74) 
400.33553936414734

>  <Genealogy>  (74) 
CC(C)(C)OC(=O)n1c(C([NH-])=O)cc2ccc(N3CC(O)(C4CC4)C3)cc21 (protonated)
CC(C)(C)OC(=O)n1c(C([NH-])=O)cc2ccc(N3CC(O)(C4CC4)C3)cc21 (3D coordinates assigned)
CC(C)(C)OC(=O)n1c(C([NH-])=O)cc2ccc(N3CC(O)(C4CC4)C3)cc21 (nonaromatic ring conformer: 400.33553936414734 kcal/mol)

>  <smiles>  (74) 
CC(C)(C)OC(=O)n1c(C(N)=O)cc2ccc(N3CC(O)(C4CC4)C3)cc21

>  <score_type>  (74) 
oracle

>  <origin>  (74) 
adg

>  <m_score__min__energy>  (74) 
-8.4800000000000004

>  <m_primary>  (74) 
energy

$$$$
78:0
     RDKit          3D

 38 39  0  0  0  0  0  0  0  0999 V2000
  149.2340  154.0080  132.3000 C   0  0  0  0  0  0  0  0  0  0  0  0
  148.0050  154.4630  132.9620 N   0  0  0  0  0  0  0  0  0  0  0  0
  147.0900  153.4720  133.5590 C   0  0  0  0  0  0  0  0  0  0  0  0
  145.8840  153.2230  132.6510 C   0  0  0  0  0  0  0  0  0  0  0  0
  144.8000  152.7660  133.4120 O   0  0  0  0  0  0  0  0  0  0  0  0
  147.7200  155.8790  133.0450 C   0  0  0  0  0  0  0  0  0  0  0  0
  148.7750  156.8290  132.9740 C   0  0  0  0  0  0  0  0  0  0  0  0
  148.5140  158.2060  133.0720 C   0  0  0  0  0  0  0  0  0  0  0  0
  147.1960  158.6090  133.2460 C   0  0  0  0  0  0  0  0  0  0  0  0
  146.6650  159.8740  133.3550 C   0  0  0  0  0  0  0  0  0  0  0  0
  145.2920  159.6870  133.5050 C   0  0  0  0  0  0  0  0  0  0  0  0
  144.3380  160.7970  133.7190 C   0  0  0  0  0  0  0  0  0  0  0  0
  142.9600  160.6600  133.3840 N   0  0  0  0  0  0  0  0  0  0  0  0
  144.7410  161.8730  134.2390 O   0  0  0  0  0  0  0  0  0  0  0  0
  144.9880  158.3580  133.4890 N   0  0  0  0  0  0  0  0  0  0  0  0
  143.6850  157.7530  133.5570 C   0  0  0  0  0  0  0  0  0  0  0  0
  142.9040  157.8360  132.5690 O   0  0  0  0  0  0  0  0  0  0  0  0
  143.2450  157.0130  134.7870 C   0  0  0  0  0  0  0  0  0  0  0  0
  143.6090  155.5650  134.6940 C   0  0  0  0  0  0  0  0  0  0  0  0
  142.9140  154.7830  133.9940 O   0  0  0  0  0  0  0  0  0  0  0  0
  144.7290  155.0820  135.3620 O   0  0  0  0  0  0  0  0  0  0  0  0
  146.1640  157.7110  133.3280 C   0  0  0  0  0  0  0  0  0  0  0  0
  146.3910  156.3360  133.2100 C   0  0  0  0  0  0  0  0  0  0  0  0
  149.9794  153.7320  133.0604 H   0  0  0  0  0  0  0  0  0  0  0  0
  149.0098  153.1333  131.6718 H   0  0  0  0  0  0  0  0  0  0  0  0
  149.6335  154.8178  131.6718 H   0  0  0  0  0  0  0  0  0  0  0  0
  147.6310  152.5256  133.7062 H   0  0  0  0  0  0  0  0  0  0  0  0
  146.7292  153.8632  134.5217 H   0  0  0  0  0  0  0  0  0  0  0  0
  145.6066  154.1610  132.1478 H   0  0  0  0  0  0  0  0  0  0  0  0
  146.1464  152.4621  131.9012 H   0  0  0  0  0  0  0  0  0  0  0  0
  144.4460  153.5610  133.8890 H   0  0  0  0  0  0  0  0  0  0  0  0
  149.8100  156.4812  132.8405 H   0  0  0  0  0  0  0  0  0  0  0  0
  149.3287  158.9427  133.0128 H   0  0  0  0  0  0  0  0  0  0  0  0
  147.2088  160.8298  133.3292 H   0  0  0  0  0  0  0  0  0  0  0  0
  142.6540  160.0070  132.6280 H   0  0  0  0  0  0  0  0  0  0  0  0
  143.7363  157.4526  135.6675 H   0  0  0  0  0  0  0  0  0  0  0  0
  142.1519  157.0969  134.8770 H   0  0  0  0  0  0  0  0  0  0  0  0
  145.5532  155.6241  133.2448 H   0  0  0  0  0  0  0  0  0  0  0  0
  1  2  1  0
  2  3  1  0
  3  4  1  0
  4  5  1  0
  2  6  1  0
  6  7  2  0
  7  8  1  0
  8  9  2  0
  9 10  1  0
 10 11  2  0
 11 12  1  0
 12 13  1  0
 12 14  2  0
 11 15  1  0
 15 16  1  0
 16 17  2  0
 16 18  1  0
 18 19  1  0
 19 20  2  0
 19 21  1  0
 15 22  1  0
 22 23  2  0
 23  6  1  0
 22  9  1  0
  1 24  1  0
  1 25  1  0
  1 26  1  0
  3 27  1  0
  3 28  1  0
  4 29  1  0
  4 30  1  0
  5 31  1  0
  7 32  1  0
  8 33  1  0
 10 34  1  0
 13 35  1  0
 18 36  1  0
 18 37  1  0
 23 38  1  0
M  CHG  2  13  -1  21  -1
M  END
>  <UniqueID>  (75) 
73

>  <SMILES>  (75) 
CN(CCO)c1ccc2cc(C([NH-])=O)n(C(=O)CC(=O)[O-])c2c1

>  <Energy>  (75) 
75.44623094541598

>  <Genealogy>  (75) 
CN(CCO)c1ccc2cc(C([NH-])=O)n(C(=O)CC(=O)[O-])c2c1 (protonated)
CN(CCO)c1ccc2cc(C([NH-])=O)n(C(=O)CC(=O)[O-])c2c1 (3D coordinates assigned)
CN(CCO)c1ccc2cc(C([NH-])=O)n(C(=O)CC(=O)[O-])c2c1 (optimized conformer: 75.44623094541598 kcal/mol)

>  <smiles>  (75) 
CN(CCO)c1ccc2cc(C(N)=O)n(C(=O)CC(=O)O)c2c1

>  <score_type>  (75) 
oracle

>  <origin>  (75) 
adg

>  <m_score__min__energy>  (75) 
-5.0700000000000003

>  <m_primary>  (75) 
energy

$$$$
79:0
     RDKit          3D

 39 41  0  0  0  0  0  0  0  0999 V2000
  140.5980  159.7230  134.3580 N   0  0  0  0  0  0  0  0  0  0  0  0
  141.6150  158.8340  134.8130 C   0  0  0  0  0  0  0  0  0  0  0  0
  142.6030  159.3000  135.4420 O   0  0  0  0  0  0  0  0  0  0  0  0
  141.5550  157.3890  134.5100 C   0  0  0  0  0  0  0  0  0  0  0  0
  142.5040  156.4720  134.9580 C   0  0  0  0  0  0  0  0  0  0  0  0
  142.1420  155.2690  134.3950 C   0  0  0  0  0  0  0  0  0  0  0  0
  142.7270  154.0130  134.5170 C   0  0  0  0  0  0  0  0  0  0  0  0
  142.1170  152.9360  133.8510 C   0  0  0  0  0  0  0  0  0  0  0  0
  140.9410  153.1260  133.0830 C   0  0  0  0  0  0  0  0  0  0  0  0
  140.3410  151.9890  132.4320 N   0  0  0  0  0  0  0  0  0  0  0  0
  140.7100  150.5970  132.6930 C   0  0  0  0  0  0  0  0  0  0  0  0
  140.0920  149.6880  131.6770 C   0  0  0  0  0  0  0  0  0  0  0  0
  140.4280  148.3670  131.4640 C   0  0  0  0  0  0  0  0  0  0  0  0
  139.6060  147.9360  130.4450 C   0  0  0  0  0  0  0  0  0  0  0  0
  138.8240  149.0200  130.1000 C   0  0  0  0  0  0  0  0  0  0  0  0
  139.1390  150.0500  130.8500 O   0  0  0  0  0  0  0  0  0  0  0  0
  140.3820  154.4240  132.9810 C   0  0  0  0  0  0  0  0  0  0  0  0
  141.0160  155.4800  133.6450 C   0  0  0  0  0  0  0  0  0  0  0  0
  140.6390  156.7760  133.7090 N   0  0  0  0  0  0  0  0  0  0  0  0
  139.4530  157.3430  133.1310 C   0  0  0  0  0  0  0  0  0  0  0  0
  138.3320  157.1440  133.6730 O   0  0  0  0  0  0  0  0  0  0  0  0
  139.5440  158.0890  131.9500 O   0  0  0  0  0  0  0  0  0  0  0  0
  138.4210  158.7010  131.3200 C   0  0  0  0  0  0  0  0  0  0  0  0
  138.7230  160.1280  130.9890 C   0  0  0  0  0  0  0  0  0  0  0  0
  138.3750  160.6050  129.8780 O   0  0  0  0  0  0  0  0  0  0  0  0
  139.4160  160.9230  131.8940 O   0  0  0  0  0  0  0  0  0  0  0  0
  140.1050  159.5570  133.4530 H   0  0  0  0  0  0  0  0  0  0  0  0
  143.3601  156.6678  135.6204 H   0  0  0  0  0  0  0  0  0  0  0  0
  143.6382  153.8672  135.1157 H   0  0  0  0  0  0  0  0  0  0  0  0
  142.5586  151.9314  133.9269 H   0  0  0  0  0  0  0  0  0  0  0  0
  139.5870  152.1580  131.7290 H   0  0  0  0  0  0  0  0  0  0  0  0
  141.8047  150.4987  132.6475 H   0  0  0  0  0  0  0  0  0  0  0  0
  140.3434  150.3144  133.6908 H   0  0  0  0  0  0  0  0  0  0  0  0
  141.1917  147.7807  131.9959 H   0  0  0  0  0  0  0  0  0  0  0  0
  139.5787  146.9316  129.9973 H   0  0  0  0  0  0  0  0  0  0  0  0
  138.0533  149.0205  129.3151 H   0  0  0  0  0  0  0  0  0  0  0  0
  139.4691  154.5978  132.3924 H   0  0  0  0  0  0  0  0  0  0  0  0
  138.1834  158.1566  130.3942 H   0  0  0  0  0  0  0  0  0  0  0  0
  137.5636  158.6679  132.0083 H   0  0  0  0  0  0  0  0  0  0  0  0
  1  2  1  0
  2  3  2  0
  2  4  1  0
  4  5  2  0
  5  6  1  0
  6  7  2  0
  7  8  1  0
  8  9  2  0
  9 10  1  0
 10 11  1  0
 11 12  1  0
 12 13  2  0
 13 14  1  0
 14 15  2  0
 15 16  1  0
  9 17  1  0
 17 18  2  0
 18 19  1  0
 19 20  1  0
 20 21  2  0
 20 22  1  0
 22 23  1  0
 23 24  1  0
 24 25  2  0
 24 26  1  0
 19  4  1  0
 18  6  1  0
 16 12  1  0
  1 27  1  0
  5 28  1  0
  7 29  1  0
  8 30  1  0
 10 31  1  0
 11 32  1  0
 11 33  1  0
 13 34  1  0
 14 35  1  0
 15 36  1  0
 17 37  1  0
 23 38  1  0
 23 39  1  0
M  CHG  2   1  -1  26  -1
M  END
>  <UniqueID>  (76) 
74

>  <SMILES>  (76) 
[NH-]C(=O)c1cc2ccc(NCc3ccco3)cc2n1C(=O)OCC(=O)[O-]

>  <Energy>  (76) 
102.09591212049261

>  <Genealogy>  (76) 
[NH-]C(=O)c1cc2ccc(NCc3ccco3)cc2n1C(=O)OCC(=O)[O-] (protonated)
[NH-]C(=O)c1cc2ccc(NCc3ccco3)cc2n1C(=O)OCC(=O)[O-] (3D coordinates assigned)
[NH-]C(=O)c1cc2ccc(NCc3ccco3)cc2n1C(=O)OCC(=O)[O-] (optimized conformer: 102.09591212049261 kcal/mol)

>  <smiles>  (76) 
NC(=O)c1cc2ccc(NCc3ccco3)cc2n1C(=O)OCC(=O)O

>  <score_type>  (76) 
oracle

>  <origin>  (76) 
adg

>  <m_score__min__energy>  (76) 
-7.4800000000000004

>  <m_primary>  (76) 
energy

$$$$
80:0
     RDKit          3D

 28 29  0  0  0  0  0  0  0  0999 V2000
  143.9480  163.3950  133.3540 N   0  0  0  0  0  0  0  0  0  0  0  0
  144.8160  162.5780  134.1340 C   0  0  0  0  0  0  0  0  0  0  0  0
  145.4660  163.0990  135.0790 O   0  0  0  0  0  0  0  0  0  0  0  0
  144.9340  161.1270  133.8770 C   0  0  0  0  0  0  0  0  0  0  0  0
  146.1460  160.4870  133.6190 C   0  0  0  0  0  0  0  0  0  0  0  0
  145.8340  159.1510  133.4990 C   0  0  0  0  0  0  0  0  0  0  0  0
  146.6540  158.0600  133.2250 C   0  0  0  0  0  0  0  0  0  0  0  0
  146.0540  156.7930  133.1250 C   0  0  0  0  0  0  0  0  0  0  0  0
  144.6550  156.6420  133.2920 C   0  0  0  0  0  0  0  0  0  0  0  0
  144.0310  155.2810  133.1650 C   0  0  0  0  0  0  0  0  0  0  0  0
  142.6960  155.3450  133.5170 F   0  0  0  0  0  0  0  0  0  0  0  0
  144.6820  154.3920  134.0010 F   0  0  0  0  0  0  0  0  0  0  0  0
  143.8540  157.7730  133.5650 C   0  0  0  0  0  0  0  0  0  0  0  0
  144.4810  159.0190  133.6780 C   0  0  0  0  0  0  0  0  0  0  0  0
  143.9150  160.2220  133.9130 N   0  0  0  0  0  0  0  0  0  0  0  0
  142.5140  160.4860  134.0760 C   0  0  0  0  0  0  0  0  0  0  0  0
  141.9720  161.3810  133.3760 O   0  0  0  0  0  0  0  0  0  0  0  0
  141.7390  159.7150  135.0750 C   0  0  0  0  0  0  0  0  0  0  0  0
  140.7260  158.8790  134.8050 C   0  0  0  0  0  0  0  0  0  0  0  0
  140.0780  158.4760  133.0460 Br  0  0  0  0  0  0  0  0  0  0  0  0
  139.8660  157.9870  136.2590 Br  0  0  0  0  0  0  0  0  0  0  0  0
  142.9130  163.2630  133.3850 H   0  0  0  0  0  0  0  0  0  0  0  0
  147.1396  160.9506  133.5303 H   0  0  0  0  0  0  0  0  0  0  0  0
  147.7385  158.1857  133.0909 H   0  0  0  0  0  0  0  0  0  0  0  0
  146.6762  155.9105  132.9151 H   0  0  0  0  0  0  0  0  0  0  0  0
  144.1193  154.9395  132.1231 H   0  0  0  0  0  0  0  0  0  0  0  0
  142.7649  157.6768  133.6857 H   0  0  0  0  0  0  0  0  0  0  0  0
  142.0190  159.8390  136.1315 H   0  0  0  0  0  0  0  0  0  0  0  0
  1  2  1  0
  2  3  2  0
  2  4  1  0
  4  5  2  0
  5  6  1  0
  6  7  2  0
  7  8  1  0
  8  9  2  0
  9 10  1  0
 10 11  1  0
 10 12  1  0
  9 13  1  0
 13 14  2  0
 14 15  1  0
 15 16  1  0
 16 17  2  0
 16 18  1  0
 18 19  2  3
 19 20  1  0
 19 21  1  0
 15  4  1  0
 14  6  1  0
  1 22  1  0
  5 23  1  0
  7 24  1  0
  8 25  1  0
 10 26  1  0
 13 27  1  0
 18 28  1  0
M  CHG  1   1  -1
M  END
>  <UniqueID>  (77) 
75

>  <SMILES>  (77) 
[NH-]C(=O)c1cc2ccc(C(F)F)cc2n1C(=O)C=C(Br)Br

>  <Energy>  (77) 
69.98466195591791

>  <Genealogy>  (77) 
[NH-]C(=O)c1cc2ccc(C(F)F)cc2n1C(=O)C=C(Br)Br (protonated)
[NH-]C(=O)c1cc2ccc(C(F)F)cc2n1C(=O)C=C(Br)Br (3D coordinates assigned)
[NH-]C(=O)c1cc2ccc(C(F)F)cc2n1C(=O)C=C(Br)Br (optimized conformer: 69.98466195591791 kcal/mol)

>  <smiles>  (77) 
NC(=O)c1cc2ccc(C(F)F)cc2n1C(=O)C=C(Br)Br

>  <score_type>  (77) 
oracle

>  <origin>  (77) 
adg

>  <m_score__min__energy>  (77) 
-7.2699999999999996

>  <m_primary>  (77) 
energy

$$$$
81:0
     RDKit          3D

 35 36  0  0  0  0  0  0  0  0999 V2000
  140.2460  156.3700  134.8090 N   0  0  0  0  0  0  0  0  0  0  0  0
  140.4520  157.7800  134.8340 C   0  0  0  0  0  0  0  0  0  0  0  0
  139.4760  158.5420  135.0710 O   0  0  0  0  0  0  0  0  0  0  0  0
  141.7810  158.3600  134.5520 C   0  0  0  0  0  0  0  0  0  0  0  0
  142.0600  159.7250  134.6100 C   0  0  0  0  0  0  0  0  0  0  0  0
  143.3770  159.8450  134.2240 C   0  0  0  0  0  0  0  0  0  0  0  0
  144.1810  160.9750  134.1100 C   0  0  0  0  0  0  0  0  0  0  0  0
  145.5180  160.7950  133.7120 C   0  0  0  0  0  0  0  0  0  0  0  0
  146.0320  159.4960  133.4590 C   0  0  0  0  0  0  0  0  0  0  0  0
  147.4550  159.3240  132.9930 C   0  0  0  0  0  0  0  0  0  0  0  0
  147.7510  160.3020  132.0620 F   0  0  0  0  0  0  0  0  0  0  0  0
  148.3320  159.4360  134.0580 F   0  0  0  0  0  0  0  0  0  0  0  0
  147.6360  158.0800  132.4130 F   0  0  0  0  0  0  0  0  0  0  0  0
  145.1750  158.3760  133.5640 C   0  0  0  0  0  0  0  0  0  0  0  0
  143.8480  158.5890  133.9500 C   0  0  0  0  0  0  0  0  0  0  0  0
  142.8830  157.6680  134.1480 N   0  0  0  0  0  0  0  0  0  0  0  0
  143.0480  156.2480  134.0480 C   0  0  0  0  0  0  0  0  0  0  0  0
  142.7670  155.6610  132.9690 O   0  0  0  0  0  0  0  0  0  0  0  0
  143.6700  155.4740  135.1720 C   0  0  0  0  0  0  0  0  0  0  0  0
  142.6590  154.9090  135.9830 O   0  0  0  0  0  0  0  0  0  0  0  0
  142.8860  153.5270  136.1610 C   0  0  0  0  0  0  0  0  0  0  0  0
  141.9850  152.6110  134.8820 P   0  0  1  0  0  0  0  0  0  0  0  0
  142.9720  151.9260  133.9640 O   0  0  0  0  0  0  0  0  0  0  0  0
  140.9960  151.4490  135.6100 O   0  0  0  0  0  0  0  0  0  0  0  0
  141.0320  153.6800  133.9810 O   0  0  0  0  0  0  0  0  0  0  0  0
  141.0500  155.7120  134.7140 H   0  0  0  0  0  0  0  0  0  0  0  0
  141.3742  160.5340  134.9019 H   0  0  0  0  0  0  0  0  0  0  0  0
  143.7833  161.9779  134.3245 H   0  0  0  0  0  0  0  0  0  0  0  0
  146.1731  161.6710  133.5954 H   0  0  0  0  0  0  0  0  0  0  0  0
  145.5432  157.3623  133.3474 H   0  0  0  0  0  0  0  0  0  0  0  0
  144.2976  154.6708  134.7585 H   0  0  0  0  0  0  0  0  0  0  0  0
  144.2871  156.1512  135.7808 H   0  0  0  0  0  0  0  0  0  0  0  0
  143.9623  153.3162  136.0764 H   0  0  0  0  0  0  0  0  0  0  0  0
  142.5346  153.2180  137.1565 H   0  0  0  0  0  0  0  0  0  0  0  0
  141.3520  154.5820  134.2390 H   0  0  0  0  0  0  0  0  0  0  0  0
  1  2  1  0
  2  3  2  0
  2  4  1  0
  4  5  2  0
  5  6  1  0
  6  7  2  0
  7  8  1  0
  8  9  2  0
  9 10  1  0
 10 11  1  0
 10 12  1  0
 10 13  1  0
  9 14  1  0
 14 15  2  0
 15 16  1  0
 16 17  1  0
 17 18  2  0
 17 19  1  0
 19 20  1  0
 20 21  1  0
 21 22  1  0
 22 23  2  0
 22 24  1  1
 22 25  1  0
 16  4  1  0
 15  6  1  0
  1 26  1  0
  5 27  1  0
  7 28  1  0
  8 29  1  0
 14 30  1  0
 19 31  1  0
 19 32  1  0
 21 33  1  0
 21 34  1  0
 25 35  1  0
M  CHG  2   1  -1  24  -1
M  END
>  <UniqueID>  (78) 
76

>  <SMILES>  (78) 
[NH-]C(=O)c1cc2ccc(C(F)(F)F)cc2n1C(=O)COC[P@@](=O)([O-])O

>  <Energy>  (78) 
70.51268126057141

>  <Genealogy>  (78) 
[NH-]C(=O)c1cc2ccc(C(F)(F)F)cc2n1C(=O)COCP(=O)([O-])O (protonated)
[NH-]C(=O)c1cc2ccc(C(F)(F)F)cc2n1C(=O)COC[P@@](=O)([O-])O (chirality)
[NH-]C(=O)c1cc2ccc(C(F)(F)F)cc2n1C(=O)COC[P@@](=O)([O-])O (3D coordinates assigned)
[NH-]C(=O)c1cc2ccc(C(F)(F)F)cc2n1C(=O)COC[P@@](=O)([O-])O (optimized conformer: 70.51268126057141 kcal/mol)

>  <smiles>  (78) 
NC(=O)c1cc2ccc(C(F)(F)F)cc2n1C(=O)COCP(=O)(O)O

>  <score_type>  (78) 
oracle

>  <origin>  (78) 
adg

>  <m_score__min__energy>  (78) 
-5.4800000000000004

>  <m_primary>  (78) 
energy

$$$$
82:0
     RDKit          3D

 40 41  0  0  0  0  0  0  0  0999 V2000
  144.9720  154.0210  134.8370 C   0  0  0  0  0  0  0  0  0  0  0  0
  145.4290  153.9490  133.4460 N   0  0  0  0  0  0  0  0  0  0  0  0
  144.5230  154.3470  132.3970 C   0  0  0  0  0  0  0  0  0  0  0  0
  144.6000  153.7230  131.1110 N   0  0  0  0  0  0  0  0  0  0  0  0
  143.6230  155.2580  132.6160 N   0  0  0  0  0  0  0  0  0  0  0  0
  146.7130  153.3660  133.1110 C   0  0  0  0  0  0  0  0  0  0  0  0
  146.7630  152.3670  132.3420 O   0  0  0  0  0  0  0  0  0  0  0  0
  148.0170  153.9250  133.6280 C   0  0  0  0  0  0  0  0  0  0  0  0
  148.6820  154.8560  132.6030 C   0  0  0  0  0  0  0  0  0  0  0  0
  148.2690  156.2900  132.7980 C   0  0  0  0  0  0  0  0  0  0  0  0
  149.2090  157.3340  132.6000 C   0  0  0  0  0  0  0  0  0  0  0  0
  148.8170  158.6780  132.6990 C   0  0  0  0  0  0  0  0  0  0  0  0
  147.4850  158.9470  133.0050 C   0  0  0  0  0  0  0  0  0  0  0  0
  146.8330  160.1530  133.1230 C   0  0  0  0  0  0  0  0  0  0  0  0
  145.5100  159.8310  133.4150 C   0  0  0  0  0  0  0  0  0  0  0  0
  144.4690  160.8410  133.7020 C   0  0  0  0  0  0  0  0  0  0  0  0
  143.1090  160.5700  133.3720 N   0  0  0  0  0  0  0  0  0  0  0  0
  144.7720  161.9570  134.1990 O   0  0  0  0  0  0  0  0  0  0  0  0
  145.3490  158.4770  133.4690 N   0  0  0  0  0  0  0  0  0  0  0  0
  144.1340  157.7390  133.6780 C   0  0  0  0  0  0  0  0  0  0  0  0
  143.9200  157.1590  134.7750 O   0  0  0  0  0  0  0  0  0  0  0  0
  143.1680  157.6830  132.6810 O   0  0  0  0  0  0  0  0  0  0  0  0
  146.5690  157.9510  133.2210 C   0  0  0  0  0  0  0  0  0  0  0  0
  146.9290  156.6030  133.1130 C   0  0  0  0  0  0  0  0  0  0  0  0
  145.8298  153.8859  135.5122 H   0  0  0  0  0  0  0  0  0  0  0  0
  144.5114  155.0028  135.0213 H   0  0  0  0  0  0  0  0  0  0  0  0
  144.2319  153.2284  135.0213 H   0  0  0  0  0  0  0  0  0  0  0  0
  145.3520  153.0300  130.8990 H   0  0  0  0  0  0  0  0  0  0  0  0
  143.9270  153.9700  130.3540 H   0  0  0  0  0  0  0  0  0  0  0  0
  143.5270  155.7080  133.5520 H   0  0  0  0  0  0  0  0  0  0  0  0
  142.9580  155.5460  131.8640 H   0  0  0  0  0  0  0  0  0  0  0  0
  147.8212  154.4919  134.5501 H   0  0  0  0  0  0  0  0  0  0  0  0
  148.6988  153.0834  133.8200 H   0  0  0  0  0  0  0  0  0  0  0  0
  149.7742  154.7824  132.7115 H   0  0  0  0  0  0  0  0  0  0  0  0
  148.3617  154.5421  131.5986 H   0  0  0  0  0  0  0  0  0  0  0  0
  150.2553  157.0877  132.3666 H   0  0  0  0  0  0  0  0  0  0  0  0
  149.5386  159.4929  132.5400 H   0  0  0  0  0  0  0  0  0  0  0  0
  147.2652  161.1583  133.0105 H   0  0  0  0  0  0  0  0  0  0  0  0
  142.8650  159.8540  132.6520 H   0  0  0  0  0  0  0  0  0  0  0  0
  146.1862  155.8070  133.2697 H   0  0  0  0  0  0  0  0  0  0  0  0
  1  2  1  0
  2  3  1  0
  3  4  1  0
  3  5  2  0
  2  6  1  0
  6  7  2  0
  6  8  1  0
  8  9  1  0
  9 10  1  0
 10 11  2  0
 11 12  1  0
 12 13  2  0
 13 14  1  0
 14 15  2  0
 15 16  1  0
 16 17  1  0
 16 18  2  0
 15 19  1  0
 19 20  1  0
 20 21  2  0
 20 22  1  0
 19 23  1  0
 23 24  2  0
 24 10  1  0
 23 13  1  0
  1 25  1  0
  1 26  1  0
  1 27  1  0
  4 28  1  0
  4 29  1  0
  5 30  1  0
  5 31  1  0
  8 32  1  0
  8 33  1  0
  9 34  1  0
  9 35  1  0
 11 36  1  0
 12 37  1  0
 14 38  1  0
 17 39  1  0
 24 40  1  0
M  CHG  3   5   1  17  -1  22  -1
M  END
>  <UniqueID>  (79) 
77

>  <SMILES>  (79) 
CN(C(N)=[NH2+])C(=O)CCc1ccc2cc(C([NH-])=O)n(C(=O)[O-])c2c1

>  <Energy>  (79) 
77.70347746996799

>  <Genealogy>  (79) 
CN(C(N)=[NH2+])C(=O)CCc1ccc2cc(C([NH-])=O)n(C(=O)[O-])c2c1 (protonated)
CN(C(N)=[NH2+])C(=O)CCc1ccc2cc(C([NH-])=O)n(C(=O)[O-])c2c1 (3D coordinates assigned)
CN(C(N)=[NH2+])C(=O)CCc1ccc2cc(C([NH-])=O)n(C(=O)[O-])c2c1 (optimized conformer: 77.70347746996799 kcal/mol)

>  <smiles>  (79) 
CN(C(=N)N)C(=O)CCc1ccc2cc(C(N)=O)n(C(=O)O)c2c1

>  <score_type>  (79) 
oracle

>  <origin>  (79) 
adg

>  <m_score__min__energy>  (79) 
-6.5899999999999999

>  <m_primary>  (79) 
energy

$$$$
83:0
     RDKit          3D

 38 40  0  0  0  0  0  0  0  0999 V2000
  139.9175  157.9683  131.0529 H   0  0  0  0  0  0  0  0  0  0  0  0
  139.2440  158.3780  131.8200 C   0  0  0  0  0  0  0  0  0  0  0  0
  138.6720  159.7190  131.6190 C   0  0  0  0  0  0  0  0  0  0  0  0
  137.5630  159.8740  131.0430 O   0  0  0  0  0  0  0  0  0  0  0  0
  139.3680  160.8320  132.0730 O   0  0  0  0  0  0  0  0  0  0  0  0
  138.9740  157.6390  132.9030 C   0  0  0  0  0  0  0  0  0  0  0  0
  138.3024  158.0512  133.6705 H   0  0  0  0  0  0  0  0  0  0  0  0
  139.5430  156.2920  133.1070 C   0  0  0  0  0  0  0  0  0  0  0  0
  138.8090  155.2860  132.9170 O   0  0  0  0  0  0  0  0  0  0  0  0
  140.9070  156.1020  133.5200 N   0  0  0  0  0  0  0  0  0  0  0  0
  141.7790  157.0530  133.9550 C   0  0  0  0  0  0  0  0  0  0  0  0
  141.4340  158.4720  134.2070 C   0  0  0  0  0  0  0  0  0  0  0  0
  141.0840  158.8420  135.3590 O   0  0  0  0  0  0  0  0  0  0  0  0
  141.5060  159.4430  133.1610 N   0  0  0  0  0  0  0  0  0  0  0  0
  141.7260  159.1740  132.1770 H   0  0  0  0  0  0  0  0  0  0  0  0
  141.2930  160.4460  133.3640 H   0  0  0  0  0  0  0  0  0  0  0  0
  143.0340  156.4900  134.1860 C   0  0  0  0  0  0  0  0  0  0  0  0
  143.9377  157.0018  134.5486 H   0  0  0  0  0  0  0  0  0  0  0  0
  142.9020  155.1580  133.8640 C   0  0  0  0  0  0  0  0  0  0  0  0
  143.8380  154.1300  133.8930 C   0  0  0  0  0  0  0  0  0  0  0  0
  144.8697  154.3129  134.2279 H   0  0  0  0  0  0  0  0  0  0  0  0
  143.4270  152.8510  133.4820 C   0  0  0  0  0  0  0  0  0  0  0  0
  144.1449  152.0178  133.5011 H   0  0  0  0  0  0  0  0  0  0  0  0
  142.0960  152.6200  133.0420 C   0  0  0  0  0  0  0  0  0  0  0  0
  141.6730  151.2660  132.6050 C   0  0  0  0  0  0  0  0  0  0  0  0
  142.5650  150.1800  132.6770 C   0  0  0  0  0  0  0  0  0  0  0  0
  143.5851  150.3354  133.0580 H   0  0  0  0  0  0  0  0  0  0  0  0
  142.1640  148.9060  132.2680 C   0  0  0  0  0  0  0  0  0  0  0  0
  142.8693  148.0640  132.3284 H   0  0  0  0  0  0  0  0  0  0  0  0
  140.8720  148.6970  131.7830 C   0  0  0  0  0  0  0  0  0  0  0  0
  140.4930  147.4550  131.3900 F   0  0  0  0  0  0  0  0  0  0  0  0
  139.9730  149.7680  131.7050 C   0  0  0  0  0  0  0  0  0  0  0  0
  138.3470  149.5190  131.0920 Cl  0  0  0  0  0  0  0  0  0  0  0  0
  140.3720  151.0460  132.1140 C   0  0  0  0  0  0  0  0  0  0  0  0
  139.6634  151.8850  132.0512 H   0  0  0  0  0  0  0  0  0  0  0  0
  141.1760  153.6950  133.0250 C   0  0  0  0  0  0  0  0  0  0  0  0
  140.1423  153.5456  132.6797 H   0  0  0  0  0  0  0  0  0  0  0  0
  141.6110  154.9510  133.4570 C   0  0  0  0  0  0  0  0  0  0  0  0
  1  2  1  0
  2  3  1  0
  3  4  2  0
  3  5  1  0
  2  6  2  0
  6  7  1  0
  6  8  1  0
  8  9  2  0
  8 10  1  0
 10 11  1  0
 11 12  1  0
 12 13  2  0
 12 14  1  0
 14 15  1  0
 14 16  1  0
 11 17  2  0
 17 18  1  0
 17 19  1  0
 19 20  2  0
 20 21  1  0
 20 22  1  0
 22 23  1  0
 22 24  2  0
 24 25  1  0
 25 26  2  0
 26 27  1  0
 26 28  1  0
 28 29  1  0
 28 30  2  0
 30 31  1  0
 30 32  1  0
 32 33  1  0
 32 34  2  0
 34 35  1  0
 24 36  1  0
 36 37  1  0
 36 38  2  0
 38 10  1  0
 38 19  1  0
 34 25  1  0
M  CHG  1   5  -1
M  END
>  <UniqueID>  (80) 
78

>  <SMILES>  (80) 
NC(=O)c1cc2ccc(-c3ccc(F)c(Cl)c3)cc2n1C(=O)/C=C/C(=O)[O-]

>  <Energy>  (80) 
83.92821503623459

>  <Genealogy>  (80) 
NC(=O)c1cc2ccc(-c3ccc(F)c(Cl)c3)cc2n1C(=O)C=CC(=O)[O-] (protonated)
NC(=O)c1cc2ccc(-c3ccc(F)c(Cl)c3)cc2n1C(=O)/C=C/C(=O)[O-] (cis-trans isomerization)
NC(=O)c1cc2ccc(-c3ccc(F)c(Cl)c3)cc2n1C(=O)/C=C/C(=O)[O-] (3D coordinates assigned)
NC(=O)c1cc2ccc(-c3ccc(F)c(Cl)c3)cc2n1C(=O)/C=C/C(=O)[O-] (optimized conformer: 83.92821503623459 kcal/mol)

>  <smiles>  (80) 
NC(=O)c1cc2ccc(-c3ccc(F)c(Cl)c3)cc2n1C(=O)C=CC(=O)O

>  <score_type>  (80) 
oracle

>  <origin>  (80) 
adg

>  <m_score__min__energy>  (80) 
-9.1699999999999999

>  <m_primary>  (80) 
energy

$$$$
84:0
     RDKit          3D

 46 47  0  0  0  0  0  0  0  0999 V2000
  140.5940  158.9620  134.2030 C   0  0  0  0  0  0  0  0  0  0  0  0
  141.4550  158.5340  135.4080 C   0  0  0  0  0  0  0  0  0  0  0  0
  141.2560  157.0380  135.7170 C   0  0  0  0  0  0  0  0  0  0  0  0
  141.0320  159.3550  136.6360 C   0  0  0  0  0  0  0  0  0  0  0  0
  142.8410  158.8170  135.1660 O   0  0  0  0  0  0  0  0  0  0  0  0
  143.5980  158.3830  134.0670 C   0  0  0  0  0  0  0  0  0  0  0  0
  143.1370  157.5280  133.2620 O   0  0  0  0  0  0  0  0  0  0  0  0
  144.9110  158.9200  133.8560 N   0  0  0  0  0  0  0  0  0  0  0  0
  145.2520  160.2260  133.6690 C   0  0  0  0  0  0  0  0  0  0  0  0
  144.3470  161.3850  133.8090 C   0  0  0  0  0  0  0  0  0  0  0  0
  142.9310  161.2390  133.6850 N   0  0  0  0  0  0  0  0  0  0  0  0
  144.8280  162.5130  134.0940 O   0  0  0  0  0  0  0  0  0  0  0  0
  146.6050  160.3410  133.3630 C   0  0  0  0  0  0  0  0  0  0  0  0
  147.0910  159.0540  133.3810 C   0  0  0  0  0  0  0  0  0  0  0  0
  148.3720  158.5800  133.1280 C   0  0  0  0  0  0  0  0  0  0  0  0
  148.5840  157.1930  133.1720 C   0  0  0  0  0  0  0  0  0  0  0  0
  147.5180  156.2950  133.4570 C   0  0  0  0  0  0  0  0  0  0  0  0
  147.7470  154.8610  133.4810 N   0  0  0  0  0  0  0  0  0  0  0  0
  148.7270  154.2350  132.5820 C   0  0  0  0  0  0  0  0  0  0  0  0
  149.0240  152.8690  133.0280 C   0  0  0  0  0  0  0  0  0  0  0  0
  149.2610  151.7940  133.3840 N   0  0  0  0  0  0  0  0  0  0  0  0
  146.9620  153.9870  134.3670 C   0  0  0  0  0  0  0  0  0  0  0  0
  147.3960  154.1390  135.7930 C   0  0  0  0  0  0  0  0  0  0  0  0
  148.1070  155.1180  136.1430 O   0  0  0  0  0  0  0  0  0  0  0  0
  147.0500  153.1730  136.7300 O   0  0  0  0  0  0  0  0  0  0  0  0
  146.2270  156.8250  133.7110 C   0  0  0  0  0  0  0  0  0  0  0  0
  146.0500  158.2140  133.6800 C   0  0  0  0  0  0  0  0  0  0  0  0
  139.6633  159.4247  134.5632 H   0  0  0  0  0  0  0  0  0  0  0  0
  141.1520  159.6876  133.5930 H   0  0  0  0  0  0  0  0  0  0  0  0
  140.3524  158.0791  133.5930 H   0  0  0  0  0  0  0  0  0  0  0  0
  141.2361  156.8881  136.8066 H   0  0  0  0  0  0  0  0  0  0  0  0
  140.3046  156.6972  135.2825 H   0  0  0  0  0  0  0  0  0  0  0  0
  142.0852  156.4604  135.2825 H   0  0  0  0  0  0  0  0  0  0  0  0
  141.3107  158.8141  137.5524 H   0  0  0  0  0  0  0  0  0  0  0  0
  141.5396  160.3307  136.6174 H   0  0  0  0  0  0  0  0  0  0  0  0
  139.9428  159.5079  136.6174 H   0  0  0  0  0  0  0  0  0  0  0  0
  142.3120  162.0770  133.7430 H   0  0  0  0  0  0  0  0  0  0  0  0
  142.4880  160.2960  133.6260 H   0  0  0  0  0  0  0  0  0  0  0  0
  147.1657  161.2635  133.1519 H   0  0  0  0  0  0  0  0  0  0  0  0
  149.1964  159.2715  132.8998 H   0  0  0  0  0  0  0  0  0  0  0  0
  149.5914  156.7937  132.9829 H   0  0  0  0  0  0  0  0  0  0  0  0
  148.3159  154.2029  131.5622 H   0  0  0  0  0  0  0  0  0  0  0  0
  149.6545  154.8262  132.5947 H   0  0  0  0  0  0  0  0  0  0  0  0
  145.8979  154.2534  134.2845 H   0  0  0  0  0  0  0  0  0  0  0  0
  147.1226  152.9426  134.0612 H   0  0  0  0  0  0  0  0  0  0  0  0
  145.3803  156.1573  133.9284 H   0  0  0  0  0  0  0  0  0  0  0  0
  1  2  1  0
  2  3  1  0
  2  4  1  0
  2  5  1  0
  5  6  1  0
  6  7  2  0
  6  8  1  0
  8  9  1  0
  9 10  1  0
 10 11  1  0
 10 12  2  0
  9 13  2  0
 13 14  1  0
 14 15  2  0
 15 16  1  0
 16 17  2  0
 17 18  1  0
 18 19  1  0
 19 20  1  0
 20 21  3  0
 18 22  1  0
 22 23  1  0
 23 24  2  0
 23 25  1  0
 17 26  1  0
 26 27  2  0
 27  8  1  0
 27 14  1  0
  1 28  1  0
  1 29  1  0
  1 30  1  0
  3 31  1  0
  3 32  1  0
  3 33  1  0
  4 34  1  0
  4 35  1  0
  4 36  1  0
 11 37  1  0
 11 38  1  0
 13 39  1  0
 15 40  1  0
 16 41  1  0
 19 42  1  0
 19 43  1  0
 22 44  1  0
 22 45  1  0
 26 46  1  0
M  CHG  1  25  -1
M  END
>  <UniqueID>  (81) 
79

>  <SMILES>  (81) 
CC(C)(C)OC(=O)n1c(C(N)=O)cc2ccc(N(CC#N)CC(=O)[O-])cc21

>  <Energy>  (81) 
80.74681495381233

>  <Genealogy>  (81) 
CC(C)(C)OC(=O)n1c(C(N)=O)cc2ccc(N(CC#N)CC(=O)[O-])cc21 (protonated)
CC(C)(C)OC(=O)n1c(C(N)=O)cc2ccc(N(CC#N)CC(=O)[O-])cc21 (3D coordinates assigned)
CC(C)(C)OC(=O)n1c(C(N)=O)cc2ccc(N(CC#N)CC(=O)[O-])cc21 (optimized conformer: 80.74681495381233 kcal/mol)

>  <smiles>  (81) 
CC(C)(C)OC(=O)n1c(C(N)=O)cc2ccc(N(CC#N)CC(=O)O)cc21

>  <score_type>  (81) 
oracle

>  <origin>  (81) 
adg

>  <m_score__min__energy>  (81) 
-7.5499999999999998

>  <m_primary>  (81) 
energy

$$$$
85:0
     RDKit          3D

 44 45  0  0  0  0  0  0  0  0999 V2000
  146.7630  153.9000  133.0550 C   0  0  0  0  0  0  0  0  0  0  0  0
  147.8420  154.8840  132.9070 N   0  0  0  0  0  0  0  0  0  0  0  0
  149.2000  154.4110  132.6160 C   0  0  0  0  0  0  0  0  0  0  0  0
  147.5710  156.3020  133.0570 C   0  0  0  0  0  0  0  0  0  0  0  0
  148.6310  157.2510  133.0150 C   0  0  0  0  0  0  0  0  0  0  0  0
  148.3800  158.6240  133.1650 C   0  0  0  0  0  0  0  0  0  0  0  0
  147.0640  159.0320  133.3470 C   0  0  0  0  0  0  0  0  0  0  0  0
  146.5490  160.2950  133.5210 C   0  0  0  0  0  0  0  0  0  0  0  0
  145.1720  160.1180  133.6420 C   0  0  0  0  0  0  0  0  0  0  0  0
  144.2200  161.2450  133.7330 C   0  0  0  0  0  0  0  0  0  0  0  0
  142.8170  160.9900  133.7190 N   0  0  0  0  0  0  0  0  0  0  0  0
  144.6300  162.4270  133.8700 O   0  0  0  0  0  0  0  0  0  0  0  0
  144.8500  158.7950  133.5610 N   0  0  0  0  0  0  0  0  0  0  0  0
  143.5480  158.1940  133.6700 C   0  0  0  0  0  0  0  0  0  0  0  0
  142.8150  158.0750  132.6510 O   0  0  0  0  0  0  0  0  0  0  0  0
  143.0890  157.7680  134.9180 O   0  0  0  0  0  0  0  0  0  0  0  0
  141.9040  156.9990  135.0980 C   0  0  0  0  0  0  0  0  0  0  0  0
  140.6830  157.9290  135.1930 C   0  0  1  0  0  0  0  0  0  0  0  0
  141.0540  159.2490  134.8900 O   0  0  0  0  0  0  0  0  0  0  0  0
  139.5260  157.4740  134.2830 C   0  0  0  0  0  0  0  0  0  0  0  0
  138.7550  158.5950  133.9120 O   0  0  0  0  0  0  0  0  0  0  0  0
  139.1340  159.0110  132.3030 P   0  0  0  0  0  0  0  0  0  0  0  0
  139.0840  157.7800  131.4260 O   0  0  0  0  0  0  0  0  0  0  0  0
  137.9960  160.1300  131.7480 O   0  0  0  0  0  0  0  0  0  0  0  0
  140.6750  159.7040  132.2220 O   0  0  0  0  0  0  0  0  0  0  0  0
  146.0230  158.1440  133.3740 C   0  0  0  0  0  0  0  0  0  0  0  0
  146.2460  156.7670  133.2500 C   0  0  0  0  0  0  0  0  0  0  0  0
  146.5707  153.7246  134.1238 H   0  0  0  0  0  0  0  0  0  0  0  0
  145.8496  154.2826  132.5761 H   0  0  0  0  0  0  0  0  0  0  0  0
  147.0600  152.9553  132.5761 H   0  0  0  0  0  0  0  0  0  0  0  0
  149.7336  154.2251  133.5598 H   0  0  0  0  0  0  0  0  0  0  0  0
  149.1468  153.4784  132.0350 H   0  0  0  0  0  0  0  0  0  0  0  0
  149.7377  155.1748  132.0350 H   0  0  0  0  0  0  0  0  0  0  0  0
  149.6633  156.9030  132.8626 H   0  0  0  0  0  0  0  0  0  0  0  0
  149.2010  159.3556  133.1392 H   0  0  0  0  0  0  0  0  0  0  0  0
  147.1054  161.2432  133.5570 H   0  0  0  0  0  0  0  0  0  0  0  0
  142.4430  160.0640  133.4110 H   0  0  0  0  0  0  0  0  0  0  0  0
  141.7780  156.3185  134.2430 H   0  0  0  0  0  0  0  0  0  0  0  0
  141.9885  156.4178  136.0281 H   0  0  0  0  0  0  0  0  0  0  0  0
  140.3164  157.8814  136.2290 H   0  0  0  0  0  0  0  0  0  0  0  0
  141.6400  159.2200  134.0870 H   0  0  0  0  0  0  0  0  0  0  0  0
  139.9347  156.9946  133.3812 H   0  0  0  0  0  0  0  0  0  0  0  0
  138.8933  156.7549  134.8239 H   0  0  0  0  0  0  0  0  0  0  0  0
  145.4066  156.0579  133.3015 H   0  0  0  0  0  0  0  0  0  0  0  0
  1  2  1  0
  2  3  1  0
  2  4  1  0
  4  5  2  0
  5  6  1  0
  6  7  2  0
  7  8  1  0
  8  9  2  0
  9 10  1  0
 10 11  1  0
 10 12  2  0
  9 13  1  0
 13 14  1  0
 14 15  2  0
 14 16  1  0
 16 17  1  0
 17 18  1  0
 18 19  1  0
 18 20  1  0
 20 21  1  0
 21 22  1  0
 22 23  2  0
 22 24  1  0
 22 25  1  0
 13 26  1  0
 26 27  2  0
 27  4  1  0
 26  7  1  0
  1 28  1  0
  1 29  1  0
  1 30  1  0
  3 31  1  0
  3 32  1  0
  3 33  1  0
  5 34  1  0
  6 35  1  0
  8 36  1  0
 11 37  1  0
 17 38  1  0
 17 39  1  0
 18 40  1  1
 19 41  1  0
 20 42  1  0
 20 43  1  0
 27 44  1  0
M  CHG  3  11  -1  24  -1  25  -1
M  END
>  <UniqueID>  (82) 
80

>  <SMILES>  (82) 
CN(C)c1ccc2cc(C([NH-])=O)n(C(=O)OC[C@@H](O)COP(=O)([O-])[O-])c2c1

>  <Energy>  (82) 
76.44982691685401

>  <Genealogy>  (82) 
CN(C)c1ccc2cc(C([NH-])=O)n(C(=O)OCC(O)COP(=O)([O-])[O-])c2c1 (protonated)
CN(C)c1ccc2cc(C([NH-])=O)n(C(=O)OC[C@@H](O)COP(=O)([O-])[O-])c2c1 (chirality)
CN(C)c1ccc2cc(C([NH-])=O)n(C(=O)OC[C@@H](O)COP(=O)([O-])[O-])c2c1 (3D coordinates assigned)
CN(C)c1ccc2cc(C([NH-])=O)n(C(=O)OC[C@@H](O)COP(=O)([O-])[O-])c2c1 (optimized conformer: 76.44982691685401 kcal/mol)

>  <smiles>  (82) 
CN(C)c1ccc2cc(C(N)=O)n(C(=O)OCC(O)COP(=O)(O)O)c2c1

>  <score_type>  (82) 
oracle

>  <origin>  (82) 
adg

>  <m_score__min__energy>  (82) 
-6.6200000000000001

>  <m_primary>  (82) 
energy

$$$$
86:0
     RDKit          3D

 37 38  0  0  0  0  0  0  0  0999 V2000
  145.1940  159.3570  133.0510 C   0  0  0  0  0  0  0  0  0  0  0  0
  143.9790  158.6150  133.3710 N   0  0  0  0  0  0  0  0  0  0  0  0
  143.9190  157.1780  133.4330 C   0  0  0  0  0  0  0  0  0  0  0  0
  145.1230  156.4420  133.5720 C   0  0  0  0  0  0  0  0  0  0  0  0
  145.1070  155.0400  133.6410 C   0  0  0  0  0  0  0  0  0  0  0  0
  143.8760  154.3970  133.5670 C   0  0  0  0  0  0  0  0  0  0  0  0
  143.5680  153.0560  133.6250 C   0  0  0  0  0  0  0  0  0  0  0  0
  142.1800  152.9900  133.5090 C   0  0  0  0  0  0  0  0  0  0  0  0
  141.4190  151.7260  133.4490 C   0  0  0  0  0  0  0  0  0  0  0  0
  140.7480  151.3560  132.2470 N   0  0  0  0  0  0  0  0  0  0  0  0
  141.3330  150.9780  134.4590 O   0  0  0  0  0  0  0  0  0  0  0  0
  141.6530  154.2410  133.3920 N   0  0  0  0  0  0  0  0  0  0  0  0
  140.2700  154.6140  133.3090 C   0  0  0  0  0  0  0  0  0  0  0  0
  139.4370  153.8160  132.8030 O   0  0  0  0  0  0  0  0  0  0  0  0
  139.8210  155.9800  133.7250 C   0  0  0  0  0  0  0  0  0  0  0  0
  139.5190  156.7250  132.5700 O   0  0  0  0  0  0  0  0  0  0  0  0
  139.8270  158.3710  132.8920 P   0  0  1  0  0  0  0  0  0  0  0  0
  141.2620  158.6900  132.5300 O   0  0  0  0  0  0  0  0  0  0  0  0
  138.7790  159.3370  131.9750 O   0  0  0  0  0  0  0  0  0  0  0  0
  139.5810  158.6360  134.5570 O   0  0  0  0  0  0  0  0  0  0  0  0
  140.9830  159.3730  135.1820 P   0  0  0  0  0  0  0  0  0  0  0  0
  142.0860  158.3500  135.3400 O   0  0  0  0  0  0  0  0  0  0  0  0
  140.6720  160.1070  136.6760 O   0  0  0  0  0  0  0  0  0  0  0  0
  141.4970  160.5610  134.0940 O   0  0  0  0  0  0  0  0  0  0  0  0
  142.7030  155.0890  133.4230 C   0  0  0  0  0  0  0  0  0  0  0  0
  142.6850  156.4870  133.3600 C   0  0  0  0  0  0  0  0  0  0  0  0
  145.6934  159.6620  133.9824 H   0  0  0  0  0  0  0  0  0  0  0  0
  145.8704  158.7177  132.4647 H   0  0  0  0  0  0  0  0  0  0  0  0
  144.9342  160.2507  132.4647 H   0  0  0  0  0  0  0  0  0  0  0  0
  143.1100  159.1660  133.5590 H   0  0  0  0  0  0  0  0  0  0  0  0
  146.0826  156.9769  133.6265 H   0  0  0  0  0  0  0  0  0  0  0  0
  146.0398  154.4673  133.7503 H   0  0  0  0  0  0  0  0  0  0  0  0
  144.2683  152.2154  133.7387 H   0  0  0  0  0  0  0  0  0  0  0  0
  139.9900  151.9530  131.8490 H   0  0  0  0  0  0  0  0  0  0  0  0
  138.9252  155.8987  134.3582 H   0  0  0  0  0  0  0  0  0  0  0  0
  140.6174  156.4793  134.2964 H   0  0  0  0  0  0  0  0  0  0  0  0
  141.7368  157.0349  133.2565 H   0  0  0  0  0  0  0  0  0  0  0  0
  1  2  1  0
  2  3  1  0
  3  4  2  0
  4  5  1  0
  5  6  2  0
  6  7  1  0
  7  8  2  0
  8  9  1  0
  9 10  1  0
  9 11  2  0
  8 12  1  0
 12 13  1  0
 13 14  2  0
 13 15  1  0
 15 16  1  0
 16 17  1  0
 17 18  2  0
 17 19  1  6
 17 20  1  0
 20 21  1  0
 21 22  2  0
 21 23  1  0
 21 24  1  0
 12 25  1  0
 25 26  2  0
 26  3  1  0
 25  6  1  0
  1 27  1  0
  1 28  1  0
  1 29  1  0
  2 30  1  0
  4 31  1  0
  5 32  1  0
  7 33  1  0
 10 34  1  0
 15 35  1  0
 15 36  1  0
 26 37  1  0
M  CHG  4  10  -1  19  -1  23  -1  24  -1
M  END
>  <UniqueID>  (83) 
81

>  <SMILES>  (83) 
CNc1ccc2cc(C([NH-])=O)n(C(=O)CO[P@@](=O)([O-])OP(=O)([O-])[O-])c2c1

>  <Energy>  (83) 
71.95434770125098

>  <Genealogy>  (83) 
CNc1ccc2cc(C([NH-])=O)n(C(=O)COP(=O)([O-])OP(=O)([O-])[O-])c2c1 (protonated)
CNc1ccc2cc(C([NH-])=O)n(C(=O)CO[P@@](=O)([O-])OP(=O)([O-])[O-])c2c1 (chirality)
CNc1ccc2cc(C([NH-])=O)n(C(=O)CO[P@@](=O)([O-])OP(=O)([O-])[O-])c2c1 (3D coordinates assigned)
CNc1ccc2cc(C([NH-])=O)n(C(=O)CO[P@@](=O)([O-])OP(=O)([O-])[O-])c2c1 (optimized conformer: 71.95434770125098 kcal/mol)

>  <smiles>  (83) 
CNc1ccc2cc(C(N)=O)n(C(=O)COP(=O)(O)OP(=O)(O)O)c2c1

>  <score_type>  (83) 
oracle

>  <origin>  (83) 
adg

>  <m_score__min__energy>  (83) 
-6.6600000000000001

>  <m_primary>  (83) 
energy

$$$$
87:0
     RDKit          3D

 43 45  0  0  0  0  0  0  0  0999 V2000
  148.9090  160.9410  130.6390 C   0  0  0  0  0  0  0  0  0  0  0  0
  149.7240  159.6640  130.8250 C   0  0  0  0  0  0  0  0  0  0  0  0
  148.9140  158.6180  131.3620 O   0  0  0  0  0  0  0  0  0  0  0  0
  148.5050  158.5500  132.7020 C   0  0  0  0  0  0  0  0  0  0  0  0
  149.2530  159.0170  133.6020 O   0  0  0  0  0  0  0  0  0  0  0  0
  147.2210  157.9790  133.0380 N   0  0  0  0  0  0  0  0  0  0  0  0
  146.0920  158.6590  133.4000 C   0  0  0  0  0  0  0  0  0  0  0  0
  145.8870  160.1150  133.3080 C   0  0  0  0  0  0  0  0  0  0  0  0
  146.9840  161.0210  133.4450 N   0  0  0  0  0  0  0  0  0  0  0  0
  144.7420  160.5630  133.0300 O   0  0  0  0  0  0  0  0  0  0  0  0
  145.0810  157.7850  133.7790 C   0  0  0  0  0  0  0  0  0  0  0  0
  145.6070  156.5270  133.6080 C   0  0  0  0  0  0  0  0  0  0  0  0
  145.0070  155.2870  133.7880 C   0  0  0  0  0  0  0  0  0  0  0  0
  145.7600  154.1410  133.4870 C   0  0  0  0  0  0  0  0  0  0  0  0
  147.0940  154.2520  133.0190 C   0  0  0  0  0  0  0  0  0  0  0  0
  147.8610  153.0370  132.6500 C   0  0  0  0  0  0  0  0  0  0  0  0
  147.1900  151.8610  132.2750 C   0  0  0  0  0  0  0  0  0  0  0  0
  147.9100  150.7280  131.8810 C   0  0  0  0  0  0  0  0  0  0  0  0
  149.3180  150.7510  131.8630 C   0  0  0  0  0  0  0  0  0  0  0  0
  150.0870  149.6440  131.4660 O   0  0  0  0  0  0  0  0  0  0  0  0
  150.7280  149.5280  130.2000 C   0  0  0  0  0  0  0  0  0  0  0  0
  149.9840  151.9170  132.2490 C   0  0  0  0  0  0  0  0  0  0  0  0
  149.2640  153.0530  132.6340 C   0  0  0  0  0  0  0  0  0  0  0  0
  147.6760  155.5320  132.8690 C   0  0  0  0  0  0  0  0  0  0  0  0
  146.8990  156.6650  133.1590 C   0  0  0  0  0  0  0  0  0  0  0  0
  148.6452  161.3543  131.6237 H   0  0  0  0  0  0  0  0  0  0  0  0
  149.5043  161.6777  130.0796 H   0  0  0  0  0  0  0  0  0  0  0  0
  147.9901  160.7113  130.0796 H   0  0  0  0  0  0  0  0  0  0  0  0
  150.1236  159.3463  129.8506 H   0  0  0  0  0  0  0  0  0  0  0  0
  150.5451  159.8695  131.5276 H   0  0  0  0  0  0  0  0  0  0  0  0
  146.8270  162.0510  133.3860 H   0  0  0  0  0  0  0  0  0  0  0  0
  147.9620  160.6660  133.5560 H   0  0  0  0  0  0  0  0  0  0  0  0
  144.0745  158.0444  134.1391 H   0  0  0  0  0  0  0  0  0  0  0  0
  143.9733  155.2056  134.1552 H   0  0  0  0  0  0  0  0  0  0  0  0
  145.3100  153.1455  133.6157 H   0  0  0  0  0  0  0  0  0  0  0  0
  146.0905  151.8308  132.2913 H   0  0  0  0  0  0  0  0  0  0  0  0
  147.3737  149.8147  131.5838 H   0  0  0  0  0  0  0  0  0  0  0  0
  151.8005  149.3339  130.3485 H   0  0  0  0  0  0  0  0  0  0  0  0
  150.2794  148.6964  129.6367 H   0  0  0  0  0  0  0  0  0  0  0  0
  150.5993  150.4640  129.6367 H   0  0  0  0  0  0  0  0  0  0  0  0
  151.0837  151.9420  132.2502 H   0  0  0  0  0  0  0  0  0  0  0  0
  149.8023  153.9665  132.9267 H   0  0  0  0  0  0  0  0  0  0  0  0
  148.7176  155.6381  132.5316 H   0  0  0  0  0  0  0  0  0  0  0  0
  1  2  1  0
  2  3  1  0
  3  4  1  0
  4  5  2  0
  4  6  1  0
  6  7  1  0
  7  8  1  0
  8  9  1  0
  8 10  2  0
  7 11  2  0
 11 12  1  0
 12 13  2  0
 13 14  1  0
 14 15  2  0
 15 16  1  0
 16 17  2  0
 17 18  1  0
 18 19  2  0
 19 20  1  0
 20 21  1  0
 19 22  1  0
 22 23  2  0
 15 24  1  0
 24 25  2  0
 25  6  1  0
 25 12  1  0
 23 16  1  0
  1 26  1  0
  1 27  1  0
  1 28  1  0
  2 29  1  0
  2 30  1  0
  9 31  1  0
  9 32  1  0
 11 33  1  0
 13 34  1  0
 14 35  1  0
 17 36  1  0
 18 37  1  0
 21 38  1  0
 21 39  1  0
 21 40  1  0
 22 41  1  0
 23 42  1  0
 24 43  1  0
M  END
>  <UniqueID>  (84) 
82

>  <SMILES>  (84) 
CCOC(=O)n1c(C(N)=O)cc2ccc(-c3ccc(OC)cc3)cc21

>  <Energy>  (84) 
86.77822720941802

>  <Genealogy>  (84) 
CCOC(=O)n1c(C(N)=O)cc2ccc(-c3ccc(OC)cc3)cc21 (3D coordinates assigned)
CCOC(=O)n1c(C(N)=O)cc2ccc(-c3ccc(OC)cc3)cc21 (optimized conformer: 86.77822720941802 kcal/mol)

>  <smiles>  (84) 
CCOC(=O)n1c(C(N)=O)cc2ccc(-c3ccc(OC)cc3)cc21

>  <score_type>  (84) 
oracle

>  <origin>  (84) 
adg

>  <m_score__min__energy>  (84) 
-7.7300000000000004

>  <m_primary>  (84) 
energy

$$$$
88:0
     RDKit          3D

 38 39  0  0  0  0  0  0  0  0999 V2000
  148.0650  153.7540  134.7110 C   0  0  0  0  0  0  0  0  0  0  0  0
  148.6720  153.5300  133.3140 C   0  0  0  0  0  0  0  0  0  0  0  0
  149.2020  152.0920  133.2050 C   0  0  0  0  0  0  0  0  0  0  0  0
  147.6910  153.7850  132.2390 N   0  0  0  0  0  0  0  0  0  0  0  0
  146.6630  154.7180  132.6470 C   0  0  0  0  0  0  0  0  0  0  0  0
  145.3980  154.2410  133.0800 C   0  0  0  0  0  0  0  0  0  0  0  0
  144.3870  155.1350  133.4730 C   0  0  0  0  0  0  0  0  0  0  0  0
  144.6660  156.4960  133.4160 C   0  0  0  0  0  0  0  0  0  0  0  0
  143.8830  157.5770  133.7520 C   0  0  0  0  0  0  0  0  0  0  0  0
  144.6780  158.7000  133.5150 C   0  0  0  0  0  0  0  0  0  0  0  0
  144.2260  160.0900  133.7310 C   0  0  0  0  0  0  0  0  0  0  0  0
  145.1580  161.1310  134.0130 N   0  0  0  0  0  0  0  0  0  0  0  0
  142.9980  160.3660  133.6600 O   0  0  0  0  0  0  0  0  0  0  0  0
  145.9000  158.3230  133.0450 N   0  0  0  0  0  0  0  0  0  0  0  0
  147.0000  159.1720  132.6890 C   0  0  0  0  0  0  0  0  0  0  0  0
  146.8080  160.1210  131.8800 O   0  0  0  0  0  0  0  0  0  0  0  0
  148.3710  158.9610  133.2810 C   0  0  0  0  0  0  0  0  0  0  0  0
  148.2920  158.0690  134.3320 F   0  0  0  0  0  0  0  0  0  0  0  0
  148.8540  160.1650  133.7710 F   0  0  0  0  0  0  0  0  0  0  0  0
  149.3270  158.4330  132.2500 C   0  0  0  0  0  0  0  0  0  0  0  0
  149.6160  157.2060  132.2190 O   0  0  0  0  0  0  0  0  0  0  0  0
  149.8710  159.2880  131.2980 O   0  0  0  0  0  0  0  0  0  0  0  0
  145.8800  156.9750  132.9950 C   0  0  0  0  0  0  0  0  0  0  0  0
  146.9100  156.1090  132.6130 C   0  0  0  0  0  0  0  0  0  0  0  0
  148.8033  153.4815  135.4796 H   0  0  0  0  0  0  0  0  0  0  0  0
  147.7899  154.8129  134.8258 H   0  0  0  0  0  0  0  0  0  0  0  0
  147.1681  153.1276  134.8258 H   0  0  0  0  0  0  0  0  0  0  0  0
  149.4980  154.2455  133.1879 H   0  0  0  0  0  0  0  0  0  0  0  0
  149.3539  151.6798  134.2135 H   0  0  0  0  0  0  0  0  0  0  0  0
  148.4730  151.4727  132.6618 H   0  0  0  0  0  0  0  0  0  0  0  0
  150.1585  152.0939  132.6618 H   0  0  0  0  0  0  0  0  0  0  0  0
  148.1870  154.1960  131.4120 H   0  0  0  0  0  0  0  0  0  0  0  0
  147.2640  152.8840  131.9210 H   0  0  0  0  0  0  0  0  0  0  0  0
  145.2066  153.1582  133.1083 H   0  0  0  0  0  0  0  0  0  0  0  0
  143.4072  154.7699  133.8145 H   0  0  0  0  0  0  0  0  0  0  0  0
  142.8493  157.5598  134.1278 H   0  0  0  0  0  0  0  0  0  0  0  0
  145.8360  161.4530  133.2850 H   0  0  0  0  0  0  0  0  0  0  0  0
  147.8872  156.5007  132.2943 H   0  0  0  0  0  0  0  0  0  0  0  0
  1  2  1  0
  2  3  1  0
  2  4  1  0
  4  5  1  0
  5  6  2  0
  6  7  1  0
  7  8  2  0
  8  9  1  0
  9 10  2  0
 10 11  1  0
 11 12  1  0
 11 13  2  0
 10 14  1  0
 14 15  1  0
 15 16  2  0
 15 17  1  0
 17 18  1  0
 17 19  1  0
 17 20  1  0
 20 21  2  0
 20 22  1  0
 14 23  1  0
 23 24  2  0
 24  5  1  0
 23  8  1  0
  1 25  1  0
  1 26  1  0
  1 27  1  0
  2 28  1  0
  3 29  1  0
  3 30  1  0
  3 31  1  0
  4 32  1  0
  4 33  1  0
  6 34  1  0
  7 35  1  0
  9 36  1  0
 12 37  1  0
 24 38  1  0
M  CHG  3   4   1  12  -1  22  -1
M  END
>  <UniqueID>  (85) 
83

>  <SMILES>  (85) 
CC(C)[NH2+]c1ccc2cc(C([NH-])=O)n(C(=O)C(F)(F)C(=O)[O-])c2c1

>  <Energy>  (85) 
76.09182845140592

>  <Genealogy>  (85) 
CC(C)[NH2+]c1ccc2cc(C([NH-])=O)n(C(=O)C(F)(F)C(=O)[O-])c2c1 (protonated)
CC(C)[NH2+]c1ccc2cc(C([NH-])=O)n(C(=O)C(F)(F)C(=O)[O-])c2c1 (3D coordinates assigned)
CC(C)[NH2+]c1ccc2cc(C([NH-])=O)n(C(=O)C(F)(F)C(=O)[O-])c2c1 (optimized conformer: 76.09182845140592 kcal/mol)

>  <smiles>  (85) 
CC(C)Nc1ccc2cc(C(N)=O)n(C(=O)C(F)(F)C(=O)O)c2c1

>  <score_type>  (85) 
oracle

>  <origin>  (85) 
adg

>  <m_score__min__energy>  (85) 
-6.5

>  <m_primary>  (85) 
energy

$$$$
89:0
     RDKit          3D

 38 39  0  0  0  0  0  0  0  0999 V2000
  149.4220  159.0000  133.2840 N   0  0  0  0  0  0  0  0  0  0  0  0
  148.3310  159.7580  132.7590 C   0  0  0  0  0  0  0  0  0  0  0  0
  148.5670  160.6830  131.9370 O   0  0  0  0  0  0  0  0  0  0  0  0
  146.9410  159.4860  133.1910 C   0  0  0  0  0  0  0  0  0  0  0  0
  145.9450  160.4570  133.2760 C   0  0  0  0  0  0  0  0  0  0  0  0
  144.7970  159.7750  133.6100 C   0  0  0  0  0  0  0  0  0  0  0  0
  143.5070  160.2450  133.8270 C   0  0  0  0  0  0  0  0  0  0  0  0
  142.5180  159.3130  134.1800 C   0  0  0  0  0  0  0  0  0  0  0  0
  142.8290  157.9370  134.3200 C   0  0  0  0  0  0  0  0  0  0  0  0
  141.7800  157.0210  134.6920 N   0  0  0  0  0  0  0  0  0  0  0  0
  141.6830  156.3470  135.9890 C   0  0  0  0  0  0  0  0  0  0  0  0
  141.3540  157.3360  137.1180 C   0  0  0  0  0  0  0  0  0  0  0  0
  140.3710  158.4270  136.6800 C   0  0  0  0  0  0  0  0  0  0  0  0
  140.6110  159.6100  137.3900 O   0  0  0  0  0  0  0  0  0  0  0  0
  144.1540  157.4970  134.0810 C   0  0  0  0  0  0  0  0  0  0  0  0
  145.1160  158.4470  133.7180 C   0  0  0  0  0  0  0  0  0  0  0  0
  146.4280  158.2540  133.4660 N   0  0  0  0  0  0  0  0  0  0  0  0
  147.1330  157.0040  133.5380 C   0  0  0  0  0  0  0  0  0  0  0  0
  147.9990  156.8290  134.4370 O   0  0  0  0  0  0  0  0  0  0  0  0
  146.8750  155.9770  132.5660 N   0  0  0  0  0  0  0  0  0  0  0  0
  147.4500  154.6650  132.6100 C   0  0  0  0  0  0  0  0  0  0  0  0
  148.2070  154.3140  133.5530 O   0  0  0  0  0  0  0  0  0  0  0  0
  150.4010  159.2270  132.9990 H   0  0  0  0  0  0  0  0  0  0  0  0
  149.2640  158.1870  133.9190 H   0  0  0  0  0  0  0  0  0  0  0  0
  146.0533  161.5392  133.1111 H   0  0  0  0  0  0  0  0  0  0  0  0
  143.2684  161.3140  133.7253 H   0  0  0  0  0  0  0  0  0  0  0  0
  141.4867  159.6556  134.3504 H   0  0  0  0  0  0  0  0  0  0  0  0
  141.0290  156.8160  133.9940 H   0  0  0  0  0  0  0  0  0  0  0  0
  140.8894  155.5871  135.9378 H   0  0  0  0  0  0  0  0  0  0  0  0
  142.6564  155.8847  136.2098 H   0  0  0  0  0  0  0  0  0  0  0  0
  140.9106  156.7785  137.9562 H   0  0  0  0  0  0  0  0  0  0  0  0
  142.2918  157.8312  137.4100 H   0  0  0  0  0  0  0  0  0  0  0  0
  140.4962  158.6177  135.6039 H   0  0  0  0  0  0  0  0  0  0  0  0
  139.3449  158.0880  136.8853 H   0  0  0  0  0  0  0  0  0  0  0  0
  139.7390  159.8790  137.7810 H   0  0  0  0  0  0  0  0  0  0  0  0
  144.4207  156.4343  134.1783 H   0  0  0  0  0  0  0  0  0  0  0  0
  146.2410  156.1980  131.7660 H   0  0  0  0  0  0  0  0  0  0  0  0
  147.2256  153.9506  131.8042 H   0  0  0  0  0  0  0  0  0  0  0  0
  1  2  1  0
  2  3  2  0
  2  4  1  0
  4  5  2  0
  5  6  1  0
  6  7  2  0
  7  8  1  0
  8  9  2  0
  9 10  1  0
 10 11  1  0
 11 12  1  0
 12 13  1  0
 13 14  1  0
  9 15  1  0
 15 16  2  0
 16 17  1  0
 17 18  1  0
 18 19  2  0
 18 20  1  0
 20 21  1  0
 21 22  2  0
 17  4  1  0
 16  6  1  0
  1 23  1  0
  1 24  1  0
  5 25  1  0
  7 26  1  0
  8 27  1  0
 10 28  1  0
 11 29  1  0
 11 30  1  0
 12 31  1  0
 12 32  1  0
 13 33  1  0
 13 34  1  0
 14 35  1  0
 15 36  1  0
 20 37  1  0
 21 38  1  0
M  END
>  <UniqueID>  (86) 
84

>  <SMILES>  (86) 
NC(=O)c1cc2ccc(NCCCO)cc2n1C(=O)NC=O

>  <Energy>  (86) 
72.2847264265261

>  <Genealogy>  (86) 
NC(=O)c1cc2ccc(NCCCO)cc2n1C(=O)NC=O (3D coordinates assigned)
NC(=O)c1cc2ccc(NCCCO)cc2n1C(=O)NC=O (optimized conformer: 72.2847264265261 kcal/mol)

>  <smiles>  (86) 
NC(=O)c1cc2ccc(NCCCO)cc2n1C(=O)NC=O

>  <score_type>  (86) 
oracle

>  <origin>  (86) 
adg

>  <m_score__min__energy>  (86) 
-7.5700000000000003

>  <m_primary>  (86) 
energy

$$$$
90:0
     RDKit          3D

 32 33  0  0  0  0  0  0  0  0999 V2000
  149.4460  160.7840  130.0000 N   0  0  0  0  0  0  0  0  0  0  0  0
  149.5090  160.1820  130.9850 C   0  0  0  0  0  0  0  0  0  0  0  0
  149.5880  159.4170  132.2340 C   0  0  0  0  0  0  0  0  0  0  0  0
  148.2210  158.9310  132.6250 C   0  0  0  0  0  0  0  0  0  0  0  0
  147.0740  159.6980  132.3020 C   0  0  0  0  0  0  0  0  0  0  0  0
  145.7930  159.2600  132.6770 C   0  0  0  0  0  0  0  0  0  0  0  0
  145.6910  158.0680  133.3860 C   0  0  0  0  0  0  0  0  0  0  0  0
  144.5760  157.4050  133.8440 C   0  0  0  0  0  0  0  0  0  0  0  0
  145.0610  156.2650  134.4790 C   0  0  0  0  0  0  0  0  0  0  0  0
  144.1960  155.2920  135.1740 C   0  0  0  0  0  0  0  0  0  0  0  0
  144.6430  154.6100  136.3470 N   0  0  0  0  0  0  0  0  0  0  0  0
  143.0210  155.1010  134.7590 O   0  0  0  0  0  0  0  0  0  0  0  0
  146.4220  156.2140  134.4050 N   0  0  0  0  0  0  0  0  0  0  0  0
  147.2840  155.1500  134.8420 C   0  0  0  0  0  0  0  0  0  0  0  0
  147.7290  154.3200  134.0020 O   0  0  0  0  0  0  0  0  0  0  0  0
  147.6220  155.0470  136.1980 O   0  0  0  0  0  0  0  0  0  0  0  0
  147.6290  153.8570  136.9400 C   0  0  0  0  0  0  0  0  0  0  0  0
  146.6880  153.0230  136.8450 O   0  0  0  0  0  0  0  0  0  0  0  0
  148.8020  153.5470  137.8120 C   0  0  0  0  0  0  0  0  0  0  0  0
  149.6220  154.6570  137.9150 F   0  0  0  0  0  0  0  0  0  0  0  0
  148.3700  153.1890  139.0760 F   0  0  0  0  0  0  0  0  0  0  0  0
  149.5200  152.5030  137.2610 F   0  0  0  0  0  0  0  0  0  0  0  0
  146.7930  157.3280  133.7350 C   0  0  0  0  0  0  0  0  0  0  0  0
  148.0810  157.7290  133.3540 C   0  0  0  0  0  0  0  0  0  0  0  0
  150.2547  158.5538  132.0911 H   0  0  0  0  0  0  0  0  0  0  0  0
  149.9829  160.0649  133.0304 H   0  0  0  0  0  0  0  0  0  0  0  0
  147.1877  160.6444  131.7530 H   0  0  0  0  0  0  0  0  0  0  0  0
  144.8969  159.8428  132.4174 H   0  0  0  0  0  0  0  0  0  0  0  0
  143.5252  157.7105  133.7323 H   0  0  0  0  0  0  0  0  0  0  0  0
  144.0310  153.8970  136.8020 H   0  0  0  0  0  0  0  0  0  0  0  0
  145.5390  154.8700  136.8130 H   0  0  0  0  0  0  0  0  0  0  0  0
  148.9607  157.1229  133.6161 H   0  0  0  0  0  0  0  0  0  0  0  0
  1  2  3  0
  2  3  1  0
  3  4  1  0
  4  5  2  0
  5  6  1  0
  6  7  2  0
  7  8  1  0
  8  9  2  0
  9 10  1  0
 10 11  1  0
 10 12  2  0
  9 13  1  0
 13 14  1  0
 14 15  2  0
 14 16  1  0
 16 17  1  0
 17 18  2  0
 17 19  1  0
 19 20  1  0
 19 21  1  0
 19 22  1  0
 13 23  1  0
 23 24  2  0
 24  4  1  0
 23  7  1  0
  3 25  1  0
  3 26  1  0
  5 27  1  0
  6 28  1  0
  8 29  1  0
 11 30  1  0
 11 31  1  0
 24 32  1  0
M  END
>  <UniqueID>  (87) 
85

>  <SMILES>  (87) 
N#CCc1ccc2cc(C(N)=O)n(C(=O)OC(=O)C(F)(F)F)c2c1

>  <Energy>  (87) 
69.50781042201181

>  <Genealogy>  (87) 
N#CCc1ccc2cc(C(N)=O)n(C(=O)OC(=O)C(F)(F)F)c2c1 (3D coordinates assigned)
N#CCc1ccc2cc(C(N)=O)n(C(=O)OC(=O)C(F)(F)F)c2c1 (optimized conformer: 69.50781042201181 kcal/mol)

>  <smiles>  (87) 
N#CCc1ccc2cc(C(N)=O)n(C(=O)OC(=O)C(F)(F)F)c2c1

>  <score_type>  (87) 
oracle

>  <origin>  (87) 
adg

>  <m_score__min__energy>  (87) 
-6.79

>  <m_primary>  (87) 
energy

$$$$
91:0
     RDKit          3D

 36 37  0  0  0  0  0  0  0  0999 V2000
  147.0010  160.8560  133.4880 C   0  0  0  0  0  0  0  0  0  0  0  0
  147.6040  159.6660  132.8820 N   0  0  0  0  0  0  0  0  0  0  0  0
  148.0880  159.7320  131.4950 C   0  0  0  0  0  0  0  0  0  0  0  0
  149.1580  158.6670  131.2420 C   0  0  0  0  0  0  0  0  0  0  0  0
  150.1300  158.6870  132.2530 O   0  0  0  0  0  0  0  0  0  0  0  0
  147.5870  158.4230  133.6150 C   0  0  0  0  0  0  0  0  0  0  0  0
  148.4670  158.1950  134.4880 O   0  0  0  0  0  0  0  0  0  0  0  0
  146.5690  157.4370  133.3820 N   0  0  0  0  0  0  0  0  0  0  0  0
  146.7300  156.1110  133.1120 C   0  0  0  0  0  0  0  0  0  0  0  0
  148.0180  155.3890  133.0470 C   0  0  0  0  0  0  0  0  0  0  0  0
  149.2190  156.0600  132.6710 N   0  0  0  0  0  0  0  0  0  0  0  0
  148.0640  154.1660  133.3440 O   0  0  0  0  0  0  0  0  0  0  0  0
  145.4890  155.4980  132.9440 C   0  0  0  0  0  0  0  0  0  0  0  0
  144.5590  156.4950  133.1370 C   0  0  0  0  0  0  0  0  0  0  0  0
  143.1690  156.4480  133.1010 C   0  0  0  0  0  0  0  0  0  0  0  0
  142.4630  157.6390  133.3410 C   0  0  0  0  0  0  0  0  0  0  0  0
  143.1520  158.8550  133.5920 C   0  0  0  0  0  0  0  0  0  0  0  0
  142.3830  160.1170  133.8900 C   0  0  0  0  0  0  0  0  0  0  0  0
  141.8990  160.0990  135.1870 F   0  0  0  0  0  0  0  0  0  0  0  0
  143.1930  161.2290  133.7450 F   0  0  0  0  0  0  0  0  0  0  0  0
  141.3180  160.2170  133.0140 F   0  0  0  0  0  0  0  0  0  0  0  0
  144.5650  158.8540  133.6460 C   0  0  0  0  0  0  0  0  0  0  0  0
  145.2390  157.6530  133.4070 C   0  0  0  0  0  0  0  0  0  0  0  0
  147.0440  160.7712  134.5839 H   0  0  0  0  0  0  0  0  0  0  0  0
  147.5543  161.7511  133.1675 H   0  0  0  0  0  0  0  0  0  0  0  0
  145.9520  160.9391  133.1675 H   0  0  0  0  0  0  0  0  0  0  0  0
  147.2437  159.5649  130.8100 H   0  0  0  0  0  0  0  0  0  0  0  0
  148.5301  160.7243  131.3224 H   0  0  0  0  0  0  0  0  0  0  0  0
  148.6818  157.6757  131.2192 H   0  0  0  0  0  0  0  0  0  0  0  0
  149.6462  158.8797  130.2795 H   0  0  0  0  0  0  0  0  0  0  0  0
  149.8860  157.9690  132.8930 H   0  0  0  0  0  0  0  0  0  0  0  0
  149.6160  156.8230  133.2620 H   0  0  0  0  0  0  0  0  0  0  0  0
  145.2941  154.4416  132.7074 H   0  0  0  0  0  0  0  0  0  0  0  0
  142.6389  155.5073  132.8911 H   0  0  0  0  0  0  0  0  0  0  0  0
  141.3631  157.6292  133.3344 H   0  0  0  0  0  0  0  0  0  0  0  0
  145.1206  159.7764  133.8707 H   0  0  0  0  0  0  0  0  0  0  0  0
  1  2  1  0
  2  3  1  0
  3  4  1  0
  4  5  1  0
  2  6  1  0
  6  7  2  0
  6  8  1  0
  8  9  1  0
  9 10  1  0
 10 11  1  0
 10 12  2  0
  9 13  2  0
 13 14  1  0
 14 15  2  0
 15 16  1  0
 16 17  2  0
 17 18  1  0
 18 19  1  0
 18 20  1  0
 18 21  1  0
 17 22  1  0
 22 23  2  0
 23  8  1  0
 23 14  1  0
  1 24  1  0
  1 25  1  0
  1 26  1  0
  3 27  1  0
  3 28  1  0
  4 29  1  0
  4 30  1  0
  5 31  1  0
 11 32  1  0
 13 33  1  0
 15 34  1  0
 16 35  1  0
 22 36  1  0
M  CHG  1  11  -1
M  END
>  <UniqueID>  (88) 
86

>  <SMILES>  (88) 
CN(CCO)C(=O)n1c(C([NH-])=O)cc2ccc(C(F)(F)F)cc21

>  <Energy>  (88) 
71.67826007535895

>  <Genealogy>  (88) 
CN(CCO)C(=O)n1c(C([NH-])=O)cc2ccc(C(F)(F)F)cc21 (protonated)
CN(CCO)C(=O)n1c(C([NH-])=O)cc2ccc(C(F)(F)F)cc21 (3D coordinates assigned)
CN(CCO)C(=O)n1c(C([NH-])=O)cc2ccc(C(F)(F)F)cc21 (optimized conformer: 71.67826007535895 kcal/mol)

>  <smiles>  (88) 
CN(CCO)C(=O)n1c(C(N)=O)cc2ccc(C(F)(F)F)cc21

>  <score_type>  (88) 
oracle

>  <origin>  (88) 
adg

>  <m_score__min__energy>  (88) 
-5.0599999999999996

>  <m_primary>  (88) 
energy

$$$$
92:0
     RDKit          3D

 38 39  0  0  0  0  0  0  0  0999 V2000
  149.0570  159.2090  133.8660 N   0  0  0  0  0  0  0  0  0  0  0  0
  147.9960  159.7660  133.0930 C   0  0  0  0  0  0  0  0  0  0  0  0
  148.2720  160.5260  132.1270 O   0  0  0  0  0  0  0  0  0  0  0  0
  146.5880  159.4220  133.3760 C   0  0  0  0  0  0  0  0  0  0  0  0
  145.5510  160.3520  133.3520 C   0  0  0  0  0  0  0  0  0  0  0  0
  144.4040  159.6270  133.5820 C   0  0  0  0  0  0  0  0  0  0  0  0
  143.0840  160.0510  133.6920 C   0  0  0  0  0  0  0  0  0  0  0  0
  142.1030  159.0870  133.9780 C   0  0  0  0  0  0  0  0  0  0  0  0
  142.4530  157.7210  134.1400 C   0  0  0  0  0  0  0  0  0  0  0  0
  141.4010  156.7070  134.5110 C   0  0  0  0  0  0  0  0  0  0  0  0
  141.9720  155.4620  134.7140 F   0  0  0  0  0  0  0  0  0  0  0  0
  140.7710  157.1090  135.6730 F   0  0  0  0  0  0  0  0  0  0  0  0
  140.4590  156.5900  133.5030 F   0  0  0  0  0  0  0  0  0  0  0  0
  143.8100  157.3340  134.0440 C   0  0  0  0  0  0  0  0  0  0  0  0
  144.7630  158.3140  133.7400 C   0  0  0  0  0  0  0  0  0  0  0  0
  146.1010  158.1720  133.6180 N   0  0  0  0  0  0  0  0  0  0  0  0
  146.8500  156.9630  133.8190 C   0  0  0  0  0  0  0  0  0  0  0  0
  147.8400  156.7070  133.0820 O   0  0  0  0  0  0  0  0  0  0  0  0
  146.4610  156.0660  134.8210 O   0  0  0  0  0  0  0  0  0  0  0  0
  147.1350  154.8360  135.0810 C   0  0  0  0  0  0  0  0  0  0  0  0
  146.5410  154.1360  136.3010 C   0  0  0  0  0  0  0  0  0  0  0  0
  147.3720  153.0560  136.6710 O   0  0  0  0  0  0  0  0  0  0  0  0
  148.2250  153.4260  137.7360 C   0  0  0  0  0  0  0  0  0  0  0  0
  147.4310  153.0370  139.3250 P   0  0  0  0  0  0  0  0  0  0  0  0
  148.3840  152.2390  140.1850 O   0  0  0  0  0  0  0  0  0  0  0  0
  146.0240  152.1370  139.0600 O   0  0  0  0  0  0  0  0  0  0  0  0
  147.0320  154.4760  140.1170 O   0  0  0  0  0  0  0  0  0  0  0  0
  149.2350  158.1810  133.8700 H   0  0  0  0  0  0  0  0  0  0  0  0
  145.6318  161.4362  133.1847 H   0  0  0  0  0  0  0  0  0  0  0  0
  142.8161  161.1096  133.5590 H   0  0  0  0  0  0  0  0  0  0  0  0
  141.0515  159.3943  134.0775 H   0  0  0  0  0  0  0  0  0  0  0  0
  144.1097  156.2878  134.2044 H   0  0  0  0  0  0  0  0  0  0  0  0
  147.0354  154.1786  134.2047 H   0  0  0  0  0  0  0  0  0  0  0  0
  148.1949  155.0518  135.2812 H   0  0  0  0  0  0  0  0  0  0  0  0
  146.4716  154.8489  137.1359 H   0  0  0  0  0  0  0  0  0  0  0  0
  145.5362  153.7606  136.0571 H   0  0  0  0  0  0  0  0  0  0  0  0
  149.1715  152.8714  137.6553 H   0  0  0  0  0  0  0  0  0  0  0  0
  148.4230  154.5068  137.6840 H   0  0  0  0  0  0  0  0  0  0  0  0
  1  2  1  0
  2  3  2  0
  2  4  1  0
  4  5  2  0
  5  6  1  0
  6  7  2  0
  7  8  1  0
  8  9  2  0
  9 10  1  0
 10 11  1  0
 10 12  1  0
 10 13  1  0
  9 14  1  0
 14 15  2  0
 15 16  1  0
 16 17  1  0
 17 18  2  0
 17 19  1  0
 19 20  1  0
 20 21  1  0
 21 22  1  0
 22 23  1  0
 23 24  1  0
 24 25  2  0
 24 26  1  0
 24 27  1  0
 16  4  1  0
 15  6  1  0
  1 28  1  0
  5 29  1  0
  7 30  1  0
  8 31  1  0
 14 32  1  0
 20 33  1  0
 20 34  1  0
 21 35  1  0
 21 36  1  0
 23 37  1  0
 23 38  1  0
M  CHG  3   1  -1  26  -1  27  -1
M  END
>  <UniqueID>  (89) 
87

>  <SMILES>  (89) 
[NH-]C(=O)c1cc2ccc(C(F)(F)F)cc2n1C(=O)OCCOCP(=O)([O-])[O-]

>  <Energy>  (89) 
72.92058454408367

>  <Genealogy>  (89) 
[NH-]C(=O)c1cc2ccc(C(F)(F)F)cc2n1C(=O)OCCOCP(=O)([O-])[O-] (protonated)
[NH-]C(=O)c1cc2ccc(C(F)(F)F)cc2n1C(=O)OCCOCP(=O)([O-])[O-] (3D coordinates assigned)
[NH-]C(=O)c1cc2ccc(C(F)(F)F)cc2n1C(=O)OCCOCP(=O)([O-])[O-] (optimized conformer: 72.92058454408367 kcal/mol)

>  <smiles>  (89) 
NC(=O)c1cc2ccc(C(F)(F)F)cc2n1C(=O)OCCOCP(=O)(O)O

>  <score_type>  (89) 
oracle

>  <origin>  (89) 
adg

>  <m_score__min__energy>  (89) 
-6.5099999999999998

>  <m_primary>  (89) 
energy

$$$$
93:0
     RDKit          3D

 38 40  0  0  0  0  0  0  0  0999 V2000
  139.9520  158.2350  135.9900 C   0  0  0  0  0  0  0  0  0  0  0  0
  140.2010  158.6690  134.6170 N   0  0  0  0  0  0  0  0  0  0  0  0
  141.5380  159.0630  134.2760 C   0  0  0  0  0  0  0  0  0  0  0  0
  141.8570  160.4300  134.1040 C   0  0  0  0  0  0  0  0  0  0  0  0
  143.1610  160.8210  133.7620 C   0  0  0  0  0  0  0  0  0  0  0  0
  144.1200  159.8230  133.6020 C   0  0  0  0  0  0  0  0  0  0  0  0
  145.4470  159.9220  133.2530 C   0  0  0  0  0  0  0  0  0  0  0  0
  145.9210  158.6110  133.2300 C   0  0  0  0  0  0  0  0  0  0  0  0
  147.3360  158.2520  132.9920 C   0  0  0  0  0  0  0  0  0  0  0  0
  147.6870  157.2910  131.9940 N   0  0  0  0  0  0  0  0  0  0  0  0
  148.2510  158.8180  133.6460 O   0  0  0  0  0  0  0  0  0  0  0  0
  144.9250  157.7370  133.5510 N   0  0  0  0  0  0  0  0  0  0  0  0
  144.9950  156.3000  133.5710 C   0  0  0  0  0  0  0  0  0  0  0  0
  145.4760  155.6720  132.5920 O   0  0  0  0  0  0  0  0  0  0  0  0
  144.5500  155.5910  134.6800 O   0  0  0  0  0  0  0  0  0  0  0  0
  143.8280  158.4940  133.7760 C   0  0  0  0  0  0  0  0  0  0  0  0
  142.5310  158.0780  134.0980 C   0  0  0  0  0  0  0  0  0  0  0  0
  139.1100  158.5860  133.6250 C   0  0  1  0  0  0  0  0  0  0  0  0
  139.0260  159.7350  132.6130 C   0  0  0  0  0  0  0  0  0  0  0  0
  139.3660  158.7610  131.4910 C   0  0  1  0  0  0  0  0  0  0  0  0
  140.6190  159.0420  130.9270 O   0  0  0  0  0  0  0  0  0  0  0  0
  139.4330  157.6130  132.4940 C   0  0  0  0  0  0  0  0  0  0  0  0
  140.3744  158.9713  136.6896 H   0  0  0  0  0  0  0  0  0  0  0  0
  138.8680  158.1505  136.1570 H   0  0  0  0  0  0  0  0  0  0  0  0
  140.4261  157.2566  136.1570 H   0  0  0  0  0  0  0  0  0  0  0  0
  141.0766  161.1933  134.2394 H   0  0  0  0  0  0  0  0  0  0  0  0
  143.4177  161.8818  133.6246 H   0  0  0  0  0  0  0  0  0  0  0  0
  146.0135  160.8400  133.0379 H   0  0  0  0  0  0  0  0  0  0  0  0
  146.9560  156.7630  131.4690 H   0  0  0  0  0  0  0  0  0  0  0  0
  148.6910  157.0740  131.8060 H   0  0  0  0  0  0  0  0  0  0  0  0
  142.2925  157.0100  134.2094 H   0  0  0  0  0  0  0  0  0  0  0  0
  138.2659  158.4275  134.3123 H   0  0  0  0  0  0  0  0  0  0  0  0
  139.7757  160.5253  132.7658 H   0  0  0  0  0  0  0  0  0  0  0  0
  138.1254  160.3638  132.5541 H   0  0  0  0  0  0  0  0  0  0  0  0
  138.7246  158.6828  130.6008 H   0  0  0  0  0  0  0  0  0  0  0  0
  141.2880  158.6430  131.5410 H   0  0  0  0  0  0  0  0  0  0  0  0
  140.4246  157.1436  132.5743 H   0  0  0  0  0  0  0  0  0  0  0  0
  138.8258  156.7077  132.3468 H   0  0  0  0  0  0  0  0  0  0  0  0
  1  2  1  0
  2  3  1  0
  3  4  2  0
  4  5  1  0
  5  6  2  0
  6  7  1  0
  7  8  2  0
  8  9  1  0
  9 10  1  0
  9 11  2  0
  8 12  1  0
 12 13  1  0
 13 14  2  0
 13 15  1  0
 12 16  1  0
 16 17  2  0
  2 18  1  0
 18 19  1  0
 19 20  1  0
 20 21  1  0
 20 22  1  0
 17  3  1  0
 22 18  1  0
 16  6  1  0
  1 23  1  0
  1 24  1  0
  1 25  1  0
  4 26  1  0
  5 27  1  0
  7 28  1  0
 10 29  1  0
 10 30  1  0
 17 31  1  0
 18 32  1  1
 19 33  1  0
 19 34  1  0
 20 35  1  6
 21 36  1  0
 22 37  1  0
 22 38  1  0
M  CHG  1  15  -1
M  END
>  <UniqueID>  (90) 
88

>  <SMILES>  (90) 
CN(c1ccc2cc(C(N)=O)n(C(=O)[O-])c2c1)C1CC(O)C1

>  <Energy>  (90) 
145.60844934086163

>  <Genealogy>  (90) 
CN(c1ccc2cc(C(N)=O)n(C(=O)[O-])c2c1)C1CC(O)C1 (protonated)
CN(c1ccc2cc(C(N)=O)n(C(=O)[O-])c2c1)C1CC(O)C1 (3D coordinates assigned)
CN(c1ccc2cc(C(N)=O)n(C(=O)[O-])c2c1)C1CC(O)C1 (nonaromatic ring conformer: 145.60844934086163 kcal/mol)

>  <smiles>  (90) 
CN(c1ccc2cc(C(N)=O)n(C(=O)O)c2c1)C1CC(O)C1

>  <score_type>  (90) 
oracle

>  <origin>  (90) 
adg

>  <m_score__min__energy>  (90) 
-7.2199999999999998

>  <m_primary>  (90) 
energy

$$$$
94:0
     RDKit          3D

 42 43  0  0  0  0  0  0  0  0999 V2000
  142.4330  157.6570  133.3140 C   0  0  0  0  0  0  0  0  0  0  0  0
  142.1900  158.7990  134.2970 C   0  0  0  0  0  0  0  0  0  0  0  0
  142.7480  160.1230  133.7560 C   0  0  0  0  0  0  0  0  0  0  0  0
  144.1130  160.4620  134.3680 C   0  0  0  0  0  0  0  0  0  0  0  0
  145.1690  160.4950  133.3520 N   0  0  0  0  0  0  0  0  0  0  0  0
  146.1880  159.4830  133.2400 C   0  0  0  0  0  0  0  0  0  0  0  0
  147.5690  159.8200  133.1830 C   0  0  0  0  0  0  0  0  0  0  0  0
  148.5480  158.8180  133.0890 C   0  0  0  0  0  0  0  0  0  0  0  0
  148.1270  157.4930  133.0440 C   0  0  0  0  0  0  0  0  0  0  0  0
  148.8640  156.3330  132.9890 C   0  0  0  0  0  0  0  0  0  0  0  0
  147.9270  155.3030  132.9820 C   0  0  0  0  0  0  0  0  0  0  0  0
  148.2910  153.8770  132.8710 C   0  0  0  0  0  0  0  0  0  0  0  0
  147.8070  152.9140  133.8090 N   0  0  0  0  0  0  0  0  0  0  0  0
  148.9950  153.4910  131.9000 O   0  0  0  0  0  0  0  0  0  0  0  0
  146.6600  155.8020  133.0430 N   0  0  0  0  0  0  0  0  0  0  0  0
  145.4400  155.0590  133.1800 C   0  0  0  0  0  0  0  0  0  0  0  0
  144.5120  155.2070  132.3370 O   0  0  0  0  0  0  0  0  0  0  0  0
  145.2840  154.1700  134.2510 O   0  0  0  0  0  0  0  0  0  0  0  0
  145.3510  154.5700  135.6160 C   0  0  0  0  0  0  0  0  0  0  0  0
  146.6460  154.1320  136.2240 C   0  0  0  0  0  0  0  0  0  0  0  0
  147.7100  154.7540  135.9680 O   0  0  0  0  0  0  0  0  0  0  0  0
  146.6810  153.0180  137.0530 O   0  0  0  0  0  0  0  0  0  0  0  0
  146.8000  157.1470  133.0770 C   0  0  0  0  0  0  0  0  0  0  0  0
  145.8030  158.1250  133.1930 C   0  0  0  0  0  0  0  0  0  0  0  0
  142.6304  156.7293  133.8712 H   0  0  0  0  0  0  0  0  0  0  0  0
  141.5434  157.5224  132.6812 H   0  0  0  0  0  0  0  0  0  0  0  0
  143.3003  157.8962  132.6812 H   0  0  0  0  0  0  0  0  0  0  0  0
  141.1078  158.9063  134.4625 H   0  0  0  0  0  0  0  0  0  0  0  0
  142.7042  158.5630  135.2403 H   0  0  0  0  0  0  0  0  0  0  0  0
  142.8579  160.0429  132.6644 H   0  0  0  0  0  0  0  0  0  0  0  0
  142.0450  160.9247  134.0264 H   0  0  0  0  0  0  0  0  0  0  0  0
  144.0521  161.4483  134.8511 H   0  0  0  0  0  0  0  0  0  0  0  0
  144.3649  159.6799  135.0994 H   0  0  0  0  0  0  0  0  0  0  0  0
  145.1990  161.2950  132.6780 H   0  0  0  0  0  0  0  0  0  0  0  0
  147.8730  160.8767  133.2129 H   0  0  0  0  0  0  0  0  0  0  0  0
  149.6173  159.0734  133.0520 H   0  0  0  0  0  0  0  0  0  0  0  0
  149.9595  156.2390  132.9573 H   0  0  0  0  0  0  0  0  0  0  0  0
  148.1080  151.9160  133.7390 H   0  0  0  0  0  0  0  0  0  0  0  0
  147.0900  153.1710  134.5240 H   0  0  0  0  0  0  0  0  0  0  0  0
  145.2740  155.6656  135.6770 H   0  0  0  0  0  0  0  0  0  0  0  0
  144.5216  154.1020  136.1665 H   0  0  0  0  0  0  0  0  0  0  0  0
  144.7417  157.8406  133.2464 H   0  0  0  0  0  0  0  0  0  0  0  0
  1  2  1  0
  2  3  1  0
  3  4  1  0
  4  5  1  0
  5  6  1  0
  6  7  2  0
  7  8  1  0
  8  9  2  0
  9 10  1  0
 10 11  2  0
 11 12  1  0
 12 13  1  0
 12 14  2  0
 11 15  1  0
 15 16  1  0
 16 17  2  0
 16 18  1  0
 18 19  1  0
 19 20  1  0
 20 21  2  0
 20 22  1  0
 15 23  1  0
 23 24  2  0
 24  6  1  0
 23  9  1  0
  1 25  1  0
  1 26  1  0
  1 27  1  0
  2 28  1  0
  2 29  1  0
  3 30  1  0
  3 31  1  0
  4 32  1  0
  4 33  1  0
  5 34  1  0
  7 35  1  0
  8 36  1  0
 10 37  1  0
 13 38  1  0
 13 39  1  0
 19 40  1  0
 19 41  1  0
 24 42  1  0
M  CHG  1  22  -1
M  END
>  <UniqueID>  (91) 
89

>  <SMILES>  (91) 
CCCCNc1ccc2cc(C(N)=O)n(C(=O)OCC(=O)[O-])c2c1

>  <Energy>  (91) 
71.96224074947663

>  <Genealogy>  (91) 
CCCCNc1ccc2cc(C(N)=O)n(C(=O)OCC(=O)[O-])c2c1 (protonated)
CCCCNc1ccc2cc(C(N)=O)n(C(=O)OCC(=O)[O-])c2c1 (3D coordinates assigned)
CCCCNc1ccc2cc(C(N)=O)n(C(=O)OCC(=O)[O-])c2c1 (optimized conformer: 71.96224074947663 kcal/mol)

>  <smiles>  (91) 
CCCCNc1ccc2cc(C(N)=O)n(C(=O)OCC(=O)O)c2c1

>  <score_type>  (91) 
oracle

>  <origin>  (91) 
adg

>  <m_score__min__energy>  (91) 
-7.21

>  <m_primary>  (91) 
energy

$$$$
95:0
     RDKit          3D

 38 39  0  0  0  0  0  0  0  0999 V2000
  147.7670  152.7380  133.7030 N   0  0  0  0  0  0  0  0  0  0  0  0
  148.6120  153.7790  133.2080 C   0  0  0  0  0  0  0  0  0  0  0  0
  149.7940  153.5050  132.8700 O   0  0  0  0  0  0  0  0  0  0  0  0
  148.1440  155.1770  133.1440 C   0  0  0  0  0  0  0  0  0  0  0  0
  148.8980  156.2120  132.5970 C   0  0  0  0  0  0  0  0  0  0  0  0
  148.1490  157.3490  132.7890 C   0  0  0  0  0  0  0  0  0  0  0  0
  148.4130  158.6670  132.4260 C   0  0  0  0  0  0  0  0  0  0  0  0
  147.4410  159.6380  132.7160 C   0  0  0  0  0  0  0  0  0  0  0  0
  146.2280  159.2750  133.3490 C   0  0  0  0  0  0  0  0  0  0  0  0
  145.2400  160.2710  133.6260 N   0  0  0  0  0  0  0  0  0  0  0  0
  145.9910  157.9300  133.7020 C   0  0  0  0  0  0  0  0  0  0  0  0
  146.9870  156.9840  133.4210 C   0  0  0  0  0  0  0  0  0  0  0  0
  146.9680  155.6510  133.6440 N   0  0  0  0  0  0  0  0  0  0  0  0
  145.8780  154.8880  134.1860 C   0  0  0  0  0  0  0  0  0  0  0  0
  145.9750  154.3770  135.3360 O   0  0  0  0  0  0  0  0  0  0  0  0
  144.7110  154.7100  133.4350 O   0  0  0  0  0  0  0  0  0  0  0  0
  143.4850  155.3590  133.7520 C   0  0  0  0  0  0  0  0  0  0  0  0
  143.2120  156.4540  132.7200 C   0  0  0  0  0  0  0  0  0  0  0  0
  142.4120  157.6130  133.3170 C   0  0  0  0  0  0  0  0  0  0  0  0
  143.0390  158.8330  132.9990 O   0  0  0  0  0  0  0  0  0  0  0  0
  142.3710  160.0550  133.9820 P   0  0  0  0  0  0  0  0  0  0  0  0
  140.8750  160.1290  133.7710 O   0  0  0  0  0  0  0  0  0  0  0  0
  143.0600  161.5390  133.5560 O   0  0  0  0  0  0  0  0  0  0  0  0
  142.6980  159.7440  135.6120 O   0  0  0  0  0  0  0  0  0  0  0  0
  148.1010  151.7490  133.7030 H   0  0  0  0  0  0  0  0  0  0  0  0
  146.8490  152.9550  134.1480 H   0  0  0  0  0  0  0  0  0  0  0  0
  149.8834  156.1362  132.1140 H   0  0  0  0  0  0  0  0  0  0  0  0
  149.3547  158.9394  131.9270 H   0  0  0  0  0  0  0  0  0  0  0  0
  147.6236  160.6894  132.4491 H   0  0  0  0  0  0  0  0  0  0  0  0
  145.2760  161.2040  133.1580 H   0  0  0  0  0  0  0  0  0  0  0  0
  144.4640  160.0810  134.3000 H   0  0  0  0  0  0  0  0  0  0  0  0
  145.0491  157.6310  134.1852 H   0  0  0  0  0  0  0  0  0  0  0  0
  142.6656  154.6253  133.7350 H   0  0  0  0  0  0  0  0  0  0  0  0
  143.5529  155.8060  134.7548 H   0  0  0  0  0  0  0  0  0  0  0  0
  144.1727  156.8394  132.3477 H   0  0  0  0  0  0  0  0  0  0  0  0
  142.6187  156.0142  131.9048 H   0  0  0  0  0  0  0  0  0  0  0  0
  141.3930  157.6062  132.9027 H   0  0  0  0  0  0  0  0  0  0  0  0
  142.3658  157.5001  134.4102 H   0  0  0  0  0  0  0  0  0  0  0  0
  1  2  1  0
  2  3  2  0
  2  4  1  0
  4  5  2  0
  5  6  1  0
  6  7  2  0
  7  8  1  0
  8  9  2  0
  9 10  1  0
  9 11  1  0
 11 12  2  0
 12 13  1  0
 13 14  1  0
 14 15  2  0
 14 16  1  0
 16 17  1  0
 17 18  1  0
 18 19  1  0
 19 20  1  0
 20 21  1  0
 21 22  2  0
 21 23  1  0
 21 24  1  0
 13  4  1  0
 12  6  1  0
  1 25  1  0
  1 26  1  0
  5 27  1  0
  7 28  1  0
  8 29  1  0
 10 30  1  0
 10 31  1  0
 11 32  1  0
 17 33  1  0
 17 34  1  0
 18 35  1  0
 18 36  1  0
 19 37  1  0
 19 38  1  0
M  CHG  2  23  -1  24  -1
M  END
>  <UniqueID>  (92) 
90

>  <SMILES>  (92) 
NC(=O)c1cc2ccc(N)cc2n1C(=O)OCCCOP(=O)([O-])[O-]

>  <Energy>  (92) 
69.06508913133665

>  <Genealogy>  (92) 
NC(=O)c1cc2ccc(N)cc2n1C(=O)OCCCOP(=O)([O-])[O-] (protonated)
NC(=O)c1cc2ccc(N)cc2n1C(=O)OCCCOP(=O)([O-])[O-] (3D coordinates assigned)
NC(=O)c1cc2ccc(N)cc2n1C(=O)OCCCOP(=O)([O-])[O-] (optimized conformer: 69.06508913133665 kcal/mol)

>  <smiles>  (92) 
NC(=O)c1cc2ccc(N)cc2n1C(=O)OCCCOP(=O)(O)O

>  <score_type>  (92) 
oracle

>  <origin>  (92) 
adg

>  <m_score__min__energy>  (92) 
-6.5999999999999996

>  <m_primary>  (92) 
energy

$$$$
96:0
     RDKit          3D

 58 59  0  0  0  0  0  0  0  0999 V2000
  138.5760  159.3680  131.7680 C   0  0  0  0  0  0  0  0  0  0  0  0
  139.7050  159.7390  132.3780 C   0  0  0  0  0  0  0  0  0  0  0  0
  140.3820  158.8580  133.3910 C   0  0  0  0  0  0  0  0  0  0  0  0
  141.8430  159.1980  133.5040 C   0  0  0  0  0  0  0  0  0  0  0  0
  142.2490  160.5360  133.7370 C   0  0  0  0  0  0  0  0  0  0  0  0
  143.6110  160.8650  133.8300 C   0  0  0  0  0  0  0  0  0  0  0  0
  144.5410  159.8420  133.6700 C   0  0  0  0  0  0  0  0  0  0  0  0
  145.9160  159.8790  133.7390 C   0  0  0  0  0  0  0  0  0  0  0  0
  146.3290  158.5700  133.5060 C   0  0  0  0  0  0  0  0  0  0  0  0
  147.7480  158.1670  133.4240 C   0  0  0  0  0  0  0  0  0  0  0  0
  148.1830  156.8890  133.8920 N   0  0  0  0  0  0  0  0  0  0  0  0
  148.5810  158.9410  132.8830 O   0  0  0  0  0  0  0  0  0  0  0  0
  145.2570  157.7520  133.3160 N   0  0  0  0  0  0  0  0  0  0  0  0
  145.2640  156.3260  133.1550 C   0  0  0  0  0  0  0  0  0  0  0  0
  146.1970  155.7710  132.5110 O   0  0  0  0  0  0  0  0  0  0  0  0
  144.2320  155.5560  133.7040 O   0  0  0  0  0  0  0  0  0  0  0  0
  144.2540  155.0860  135.0460 C   0  0  0  0  0  0  0  0  0  0  0  0
  145.5880  155.1240  135.5430 O   0  0  0  0  0  0  0  0  0  0  0  0
  146.1830  154.0420  136.2000 C   0  0  0  0  0  0  0  0  0  0  0  0
  145.5190  153.3560  137.0250 O   0  0  0  0  0  0  0  0  0  0  0  0
  147.6430  153.7420  135.9880 C   0  0  2  0  0  0  0  0  0  0  0  0
  148.4630  154.0260  137.2510 C   0  0  0  0  0  0  0  0  0  0  0  0
  148.1480  154.5480  134.8780 N   0  0  0  0  0  0  0  0  0  0  0  0
  148.4620  154.0050  133.5940 C   0  0  0  0  0  0  0  0  0  0  0  0
  149.1210  154.7050  132.7810 O   0  0  0  0  0  0  0  0  0  0  0  0
  148.0320  152.7120  133.2580 O   0  0  0  0  0  0  0  0  0  0  0  0
  148.8690  151.5860  132.9600 C   0  0  0  0  0  0  0  0  0  0  0  0
  147.9480  150.4470  132.4960 C   0  0  0  0  0  0  0  0  0  0  0  0
  149.6300  151.1290  134.2190 C   0  0  0  0  0  0  0  0  0  0  0  0
  149.8520  151.9260  131.8240 C   0  0  0  0  0  0  0  0  0  0  0  0
  144.1670  158.5470  133.4160 C   0  0  0  0  0  0  0  0  0  0  0  0
  142.8170  158.1870  133.3400 C   0  0  0  0  0  0  0  0  0  0  0  0
  138.1043  160.0347  131.0312 H   0  0  0  0  0  0  0  0  0  0  0  0
  138.1180  158.3958  132.0025 H   0  0  0  0  0  0  0  0  0  0  0  0
  140.1509  160.7142  132.1329 H   0  0  0  0  0  0  0  0  0  0  0  0
  139.9020  159.0001  134.3705 H   0  0  0  0  0  0  0  0  0  0  0  0
  140.2879  157.8112  133.0664 H   0  0  0  0  0  0  0  0  0  0  0  0
  141.4896  161.3244  133.8460 H   0  0  0  0  0  0  0  0  0  0  0  0
  143.9328  161.8990  134.0233 H   0  0  0  0  0  0  0  0  0  0  0  0
  146.5516  160.7549  133.9360 H   0  0  0  0  0  0  0  0  0  0  0  0
  149.1960  156.6380  133.8670 H   0  0  0  0  0  0  0  0  0  0  0  0
  147.4950  156.1590  134.1820 H   0  0  0  0  0  0  0  0  0  0  0  0
  143.6127  155.7268  135.6690 H   0  0  0  0  0  0  0  0  0  0  0  0
  143.8816  154.0514  135.0772 H   0  0  0  0  0  0  0  0  0  0  0  0
  147.7450  152.6723  135.7530 H   0  0  0  0  0  0  0  0  0  0  0  0
  147.8515  153.8142  138.1405 H   0  0  0  0  0  0  0  0  0  0  0  0
  149.3570  153.3851  137.2596 H   0  0  0  0  0  0  0  0  0  0  0  0
  148.7691  155.0825  137.2596 H   0  0  0  0  0  0  0  0  0  0  0  0
  147.5313  149.9317  133.3739 H   0  0  0  0  0  0  0  0  0  0  0  0
  147.1283  150.8617  131.8909 H   0  0  0  0  0  0  0  0  0  0  0  0
  148.5251  149.7322  131.8909 H   0  0  0  0  0  0  0  0  0  0  0  0
  149.0845  151.4566  135.1163 H   0  0  0  0  0  0  0  0  0  0  0  0
  149.7121  150.0321  134.2199 H   0  0  0  0  0  0  0  0  0  0  0  0
  150.6368  151.5720  134.2199 H   0  0  0  0  0  0  0  0  0  0  0  0
  150.8089  152.2570  132.2539 H   0  0  0  0  0  0  0  0  0  0  0  0
  150.0182  151.0331  131.2034 H   0  0  0  0  0  0  0  0  0  0  0  0
  149.4310  152.7307  131.2034 H   0  0  0  0  0  0  0  0  0  0  0  0
  142.5212  157.1434  133.1572 H   0  0  0  0  0  0  0  0  0  0  0  0
  1  2  2  0
  2  3  1  0
  3  4  1  0
  4  5  2  0
  5  6  1  0
  6  7  2  0
  7  8  1  0
  8  9  2  0
  9 10  1  0
 10 11  1  0
 10 12  2  0
  9 13  1  0
 13 14  1  0
 14 15  2  0
 14 16  1  0
 16 17  1  0
 17 18  1  0
 18 19  1  0
 19 20  2  0
 19 21  1  0
 21 22  1  0
 21 23  1  0
 23 24  1  0
 24 25  2  0
 24 26  1  0
 26 27  1  0
 27 28  1  0
 27 29  1  0
 27 30  1  0
 13 31  1  0
 31 32  2  0
 32  4  1  0
 31  7  1  0
  1 33  1  0
  1 34  1  0
  2 35  1  0
  3 36  1  0
  3 37  1  0
  5 38  1  0
  6 39  1  0
  8 40  1  0
 11 41  1  0
 11 42  1  0
 17 43  1  0
 17 44  1  0
 21 45  1  6
 22 46  1  0
 22 47  1  0
 22 48  1  0
 28 49  1  0
 28 50  1  0
 28 51  1  0
 29 52  1  0
 29 53  1  0
 29 54  1  0
 30 55  1  0
 30 56  1  0
 30 57  1  0
 32 58  1  0
M  CHG  1  23  -1
M  END
>  <UniqueID>  (93) 
91

>  <SMILES>  (93) 
C=CCc1ccc2cc(C(N)=O)n(C(=O)OCOC(=O)[C@H](C)[N-]C(=O)OC(C)(C)C)c2c1

>  <Energy>  (93) 
80.5271389611399

>  <Genealogy>  (93) 
C=CCc1ccc2cc(C(N)=O)n(C(=O)OCOC(=O)C(C)[N-]C(=O)OC(C)(C)C)c2c1 (protonated)
C=CCc1ccc2cc(C(N)=O)n(C(=O)OCOC(=O)[C@H](C)[N-]C(=O)OC(C)(C)C)c2c1 (chirality)
C=CCc1ccc2cc(C(N)=O)n(C(=O)OCOC(=O)[C@H](C)[N-]C(=O)OC(C)(C)C)c2c1 (3D coordinates assigned)
C=CCc1ccc2cc(C(N)=O)n(C(=O)OCOC(=O)[C@H](C)[N-]C(=O)OC(C)(C)C)c2c1 (optimized conformer: 80.5271389611399 kcal/mol)

>  <smiles>  (93) 
C=CCc1ccc2cc(C(N)=O)n(C(=O)OCOC(=O)C(C)NC(=O)OC(C)(C)C)c2c1

>  <score_type>  (93) 
oracle

>  <origin>  (93) 
adg

>  <m_score__min__energy>  (93) 
-8.2699999999999996

>  <m_primary>  (93) 
energy

$$$$
97:0
     RDKit          3D

 44 45  0  0  0  0  0  0  0  0999 V2000
  148.8620  159.2760  129.6180 C   0  0  0  0  0  0  0  0  0  0  0  0
  148.7220  160.0550  130.9390 C   0  0  0  0  0  0  0  0  0  0  0  0
  149.6150  159.3980  132.0030 C   0  0  0  0  0  0  0  0  0  0  0  0
  149.1640  161.5200  130.7550 C   0  0  0  0  0  0  0  0  0  0  0  0
  147.3730  159.9920  131.4220 O   0  0  0  0  0  0  0  0  0  0  0  0
  146.9720  159.8200  132.7560 C   0  0  0  0  0  0  0  0  0  0  0  0
  147.5070  160.4860  133.6830 O   0  0  0  0  0  0  0  0  0  0  0  0
  145.9230  158.8890  133.0640 N   0  0  0  0  0  0  0  0  0  0  0  0
  144.6810  159.1670  133.5530 C   0  0  0  0  0  0  0  0  0  0  0  0
  144.0990  160.5140  133.7250 C   0  0  0  0  0  0  0  0  0  0  0  0
  144.9540  161.6360  133.9310 N   0  0  0  0  0  0  0  0  0  0  0  0
  142.8510  160.6810  133.7300 O   0  0  0  0  0  0  0  0  0  0  0  0
  143.9810  157.9900  133.8050 C   0  0  0  0  0  0  0  0  0  0  0  0
  144.8350  156.9730  133.4450 C   0  0  0  0  0  0  0  0  0  0  0  0
  144.6580  155.5950  133.4970 C   0  0  0  0  0  0  0  0  0  0  0  0
  145.7230  154.7760  133.0890 C   0  0  0  0  0  0  0  0  0  0  0  0
  146.9500  155.3450  132.6470 C   0  0  0  0  0  0  0  0  0  0  0  0
  148.0610  154.5260  132.2300 N   0  0  0  0  0  0  0  0  0  0  0  0
  148.8250  153.6440  133.1120 C   0  0  0  0  0  0  0  0  0  0  0  0
  149.6070  152.6130  132.2940 C   0  0  0  0  0  0  0  0  0  0  0  0
  149.6180  151.2900  132.9920 C   0  0  0  0  0  0  0  0  0  0  0  0
  149.9720  151.2120  134.1970 O   0  0  0  0  0  0  0  0  0  0  0  0
  149.2860  150.1340  132.2950 O   0  0  0  0  0  0  0  0  0  0  0  0
  147.0850  156.7500  132.6050 C   0  0  0  0  0  0  0  0  0  0  0  0
  146.0000  157.5410  133.0010 C   0  0  0  0  0  0  0  0  0  0  0  0
  149.0527  158.2149  129.8365 H   0  0  0  0  0  0  0  0  0  0  0  0
  147.9327  159.3695  129.0370 H   0  0  0  0  0  0  0  0  0  0  0  0
  149.7006  159.6872  129.0370 H   0  0  0  0  0  0  0  0  0  0  0  0
  149.2497  159.6668  133.0051 H   0  0  0  0  0  0  0  0  0  0  0  0
  149.5851  158.3050  131.8828 H   0  0  0  0  0  0  0  0  0  0  0  0
  150.6496  159.7519  131.8828 H   0  0  0  0  0  0  0  0  0  0  0  0
  149.3049  161.9871  131.7409 H   0  0  0  0  0  0  0  0  0  0  0  0
  150.1111  161.5498  130.1964 H   0  0  0  0  0  0  0  0  0  0  0  0
  148.3914  162.0687  130.1964 H   0  0  0  0  0  0  0  0  0  0  0  0
  145.8040  161.7780  133.3410 H   0  0  0  0  0  0  0  0  0  0  0  0
  142.9615  157.8937  134.2067 H   0  0  0  0  0  0  0  0  0  0  0  0
  143.7110  155.1589  133.8476 H   0  0  0  0  0  0  0  0  0  0  0  0
  145.6075  153.6823  133.1113 H   0  0  0  0  0  0  0  0  0  0  0  0
  148.3420  154.5500  131.2230 H   0  0  0  0  0  0  0  0  0  0  0  0
  149.5299  154.2463  133.7039 H   0  0  0  0  0  0  0  0  0  0  0  0
  148.1267  153.1146  133.7769 H   0  0  0  0  0  0  0  0  0  0  0  0
  149.1330  152.4982  131.3080 H   0  0  0  0  0  0  0  0  0  0  0  0
  150.6434  152.9628  132.1780 H   0  0  0  0  0  0  0  0  0  0  0  0
  148.0238  157.2136  132.2679 H   0  0  0  0  0  0  0  0  0  0  0  0
  1  2  1  0
  2  3  1  0
  2  4  1  0
  2  5  1  0
  5  6  1  0
  6  7  2  0
  6  8  1  0
  8  9  1  0
  9 10  1  0
 10 11  1  0
 10 12  2  0
  9 13  2  0
 13 14  1  0
 14 15  2  0
 15 16  1  0
 16 17  2  0
 17 18  1  0
 18 19  1  0
 19 20  1  0
 20 21  1  0
 21 22  2  0
 21 23  1  0
 17 24  1  0
 24 25  2  0
 25  8  1  0
 25 14  1  0
  1 26  1  0
  1 27  1  0
  1 28  1  0
  3 29  1  0
  3 30  1  0
  3 31  1  0
  4 32  1  0
  4 33  1  0
  4 34  1  0
 11 35  1  0
 13 36  1  0
 15 37  1  0
 16 38  1  0
 18 39  1  0
 19 40  1  0
 19 41  1  0
 20 42  1  0
 20 43  1  0
 24 44  1  0
M  CHG  2  11  -1  23  -1
M  END
>  <UniqueID>  (94) 
92

>  <SMILES>  (94) 
CC(C)(C)OC(=O)n1c(C([NH-])=O)cc2ccc(NCCC(=O)[O-])cc21

>  <Energy>  (94) 
74.28555513033331

>  <Genealogy>  (94) 
CC(C)(C)OC(=O)n1c(C([NH-])=O)cc2ccc(NCCC(=O)[O-])cc21 (protonated)
CC(C)(C)OC(=O)n1c(C([NH-])=O)cc2ccc(NCCC(=O)[O-])cc21 (3D coordinates assigned)
CC(C)(C)OC(=O)n1c(C([NH-])=O)cc2ccc(NCCC(=O)[O-])cc21 (optimized conformer: 74.28555513033331 kcal/mol)

>  <smiles>  (94) 
CC(C)(C)OC(=O)n1c(C(N)=O)cc2ccc(NCCC(=O)O)cc21

>  <score_type>  (94) 
oracle

>  <origin>  (94) 
adg

>  <m_score__min__energy>  (94) 
-7.6900000000000004

>  <m_primary>  (94) 
energy

$$$$
98:0
     RDKit          3D

 56 57  0  0  0  0  0  0  0  0999 V2000
  144.9290  159.7520  133.7360 C   0  0  0  0  0  0  0  0  0  0  0  0
  145.7030  158.5930  133.0980 C   0  0  2  0  0  0  0  0  0  0  0  0
  145.0730  157.3060  133.4130 N   0  0  0  0  0  0  0  0  0  0  0  0
  147.1380  158.6120  133.5510 C   0  0  0  0  0  0  0  0  0  0  0  0
  147.7870  159.6900  133.5480 O   0  0  0  0  0  0  0  0  0  0  0  0
  147.7490  157.4210  133.9490 O   0  0  0  0  0  0  0  0  0  0  0  0
  148.0720  156.3720  133.0440 C   0  0  0  0  0  0  0  0  0  0  0  0
  146.8750  155.7840  132.5530 O   0  0  0  0  0  0  0  0  0  0  0  0
  146.2520  154.6970  133.1690 C   0  0  0  0  0  0  0  0  0  0  0  0
  146.1660  154.6520  134.4250 O   0  0  0  0  0  0  0  0  0  0  0  0
  145.7320  153.6220  132.3640 N   0  0  0  0  0  0  0  0  0  0  0  0
  146.2950  152.2800  132.5240 C   0  0  0  0  0  0  0  0  0  0  0  0
  144.5870  153.8320  131.4680 C   0  0  0  0  0  0  0  0  0  0  0  0
  143.2560  153.6990  132.2190 C   0  0  0  0  0  0  0  0  0  0  0  0
  142.9910  154.8910  133.0890 C   0  0  0  0  0  0  0  0  0  0  0  0
  143.0580  156.0480  132.6010 O   0  0  0  0  0  0  0  0  0  0  0  0
  142.7010  154.6930  134.4440 O   0  0  0  0  0  0  0  0  0  0  0  0
  143.1230  155.5200  135.4930 C   0  0  0  0  0  0  0  0  0  0  0  0
  144.3000  155.9670  135.5290 O   0  0  0  0  0  0  0  0  0  0  0  0
  142.1950  155.8570  136.5360 N   0  0  0  0  0  0  0  0  0  0  0  0
  141.5130  157.0260  136.6940 C   0  0  0  0  0  0  0  0  0  0  0  0
  141.7140  158.2580  135.9090 C   0  0  0  0  0  0  0  0  0  0  0  0
  142.5520  158.2650  134.7580 N   0  0  0  0  0  0  0  0  0  0  0  0
  141.1690  159.3250  136.2800 O   0  0  0  0  0  0  0  0  0  0  0  0
  140.6040  156.9290  137.7440 C   0  0  0  0  0  0  0  0  0  0  0  0
  140.7430  155.6490  138.2260 C   0  0  0  0  0  0  0  0  0  0  0  0
  140.0360  154.9930  139.2290 C   0  0  0  0  0  0  0  0  0  0  0  0
  140.3290  153.6400  139.4640 C   0  0  0  0  0  0  0  0  0  0  0  0
  141.3200  152.9750  138.7020 C   0  0  0  0  0  0  0  0  0  0  0  0
  141.6150  151.5220  138.9440 C   0  0  0  0  0  0  0  0  0  0  0  0
  142.9480  151.3700  139.2790 F   0  0  0  0  0  0  0  0  0  0  0  0
  140.8280  151.0520  139.9780 F   0  0  0  0  0  0  0  0  0  0  0  0
  142.0170  153.6740  137.6920 C   0  0  0  0  0  0  0  0  0  0  0  0
  141.7100  155.0230  137.4830 C   0  0  0  0  0  0  0  0  0  0  0  0
  144.9836  159.6703  134.8316 H   0  0  0  0  0  0  0  0  0  0  0  0
  145.3709  160.7075  133.4171 H   0  0  0  0  0  0  0  0  0  0  0  0
  143.8771  159.7099  133.4171 H   0  0  0  0  0  0  0  0  0  0  0  0
  145.6805  158.7201  132.0056 H   0  0  0  0  0  0  0  0  0  0  0  0
  144.9260  156.7530  132.5370 H   0  0  0  0  0  0  0  0  0  0  0  0
  145.6680  156.7540  134.0670 H   0  0  0  0  0  0  0  0  0  0  0  0
  144.1460  157.4720  133.8520 H   0  0  0  0  0  0  0  0  0  0  0  0
  148.6522  156.7792  132.2029 H   0  0  0  0  0  0  0  0  0  0  0  0
  148.6681  155.6087  133.5655 H   0  0  0  0  0  0  0  0  0  0  0  0
  146.3921  152.0484  133.5950 H   0  0  0  0  0  0  0  0  0  0  0  0
  145.6297  151.5442  132.0486 H   0  0  0  0  0  0  0  0  0  0  0  0
  147.2861  152.2391  132.0486 H   0  0  0  0  0  0  0  0  0  0  0  0
  144.6532  154.8402  131.0331 H   0  0  0  0  0  0  0  0  0  0  0  0
  144.6183  153.0642  130.6809 H   0  0  0  0  0  0  0  0  0  0  0  0
  142.4409  153.6036  131.4865 H   0  0  0  0  0  0  0  0  0  0  0  0
  143.3120  152.8090  132.8630 H   0  0  0  0  0  0  0  0  0  0  0  0
  142.9540  157.3820  134.3770 H   0  0  0  0  0  0  0  0  0  0  0  0
  139.9207  157.7096  138.1098 H   0  0  0  0  0  0  0  0  0  0  0  0
  139.2710  155.5182  139.8197 H   0  0  0  0  0  0  0  0  0  0  0  0
  139.7840  153.0920  140.2467 H   0  0  0  0  0  0  0  0  0  0  0  0
  141.3966  150.9516  138.0292 H   0  0  0  0  0  0  0  0  0  0  0  0
  142.7829  153.1700  137.0842 H   0  0  0  0  0  0  0  0  0  0  0  0
  1  2  1  0
  2  3  1  0
  2  4  1  0
  4  5  2  0
  4  6  1  0
  6  7  1  0
  7  8  1  0
  8  9  1  0
  9 10  2  0
  9 11  1  0
 11 12  1  0
 11 13  1  0
 13 14  1  0
 14 15  1  0
 15 16  2  0
 15 17  1  0
 17 18  1  0
 18 19  2  0
 18 20  1  0
 20 21  1  0
 21 22  1  0
 22 23  1  0
 22 24  2  0
 21 25  2  0
 25 26  1  0
 26 27  2  0
 27 28  1  0
 28 29  2  0
 29 30  1  0
 30 31  1  0
 30 32  1  0
 29 33  1  0
 33 34  2  0
 34 20  1  0
 34 26  1  0
  1 35  1  0
  1 36  1  0
  1 37  1  0
  2 38  1  6
  3 39  1  0
  3 40  1  0
  3 41  1  0
  7 42  1  0
  7 43  1  0
 12 44  1  0
 12 45  1  0
 12 46  1  0
 13 47  1  0
 13 48  1  0
 14 49  1  0
 14 50  1  0
 23 51  1  0
 25 52  1  0
 27 53  1  0
 28 54  1  0
 30 55  1  0
 33 56  1  0
M  CHG  2   3   1  23  -1
M  END
>  <UniqueID>  (95) 
93

>  <SMILES>  (95) 
C[C@H]([NH3+])C(=O)OCOC(=O)N(C)CCC(=O)OC(=O)n1c(C([NH-])=O)cc2ccc(C(F)F)cc21

>  <Energy>  (95) 
76.59880772630638

>  <Genealogy>  (95) 
C[C@H]([NH3+])C(=O)OCOC(=O)N(C)CCC(=O)OC(=O)n1c(C([NH-])=O)cc2ccc(C(F)F)cc21 (protonated)
C[C@H]([NH3+])C(=O)OCOC(=O)N(C)CCC(=O)OC(=O)n1c(C([NH-])=O)cc2ccc(C(F)F)cc21 (3D coordinates assigned)
C[C@H]([NH3+])C(=O)OCOC(=O)N(C)CCC(=O)OC(=O)n1c(C([NH-])=O)cc2ccc(C(F)F)cc21 (optimized conformer: 76.59880772630638 kcal/mol)

>  <smiles>  (95) 
C[C@H](N)C(=O)OCOC(=O)N(C)CCC(=O)OC(=O)n1c(C(N)=O)cc2ccc(C(F)F)cc21

>  <score_type>  (95) 
oracle

>  <origin>  (95) 
adg

>  <m_score__min__energy>  (95) 
-5.0899999999999999

>  <m_primary>  (95) 
energy

$$$$
