0:0
     RDKit          3D

 47 50  0  0  0  0  0  0  0  0999 V2000
  140.1880  147.9330  130.2780 C   0  0  0  0  0  0  0  0  0  0  0  0
  140.4950  149.2390  130.8800 N   0  0  0  0  0  0  0  0  0  0  0  0
  141.8110  149.2480  131.5620 C   0  0  0  0  0  0  0  0  0  0  0  0
  141.4870  149.7450  132.9750 C   0  0  2  0  0  0  0  0  0  0  0  0
  140.1980  149.0110  133.2210 C   0  0  0  0  0  0  0  0  0  0  0  0
  139.5530  149.5760  131.9710 C   0  0  1  0  0  0  0  0  0  0  0  0
  139.7070  151.0820  132.2310 C   0  0  0  0  0  0  0  0  0  0  0  0
  141.0290  151.1320  132.8540 N   0  0  0  0  0  0  0  0  0  0  0  0
  141.8410  152.3170  132.9750 C   0  0  0  0  0  0  0  0  0  0  0  0
  143.2600  152.2320  132.9560 C   0  0  0  0  0  0  0  0  0  0  0  0
  144.0520  153.3890  133.0650 C   0  0  0  0  0  0  0  0  0  0  0  0
  143.4060  154.6130  133.1960 C   0  0  0  0  0  0  0  0  0  0  0  0
  143.9220  155.8860  133.2980 C   0  0  0  0  0  0  0  0  0  0  0  0
  142.8140  156.7260  133.3920 C   0  0  0  0  0  0  0  0  0  0  0  0
  142.9020  158.1890  133.5770 C   0  0  0  0  0  0  0  0  0  0  0  0
  141.9350  159.0420  132.9720 N   0  0  0  0  0  0  0  0  0  0  0  0
  143.8420  158.6960  134.2450 O   0  0  0  0  0  0  0  0  0  0  0  0
  141.6630  156.0010  133.3480 N   0  0  0  0  0  0  0  0  0  0  0  0
  140.3120  156.4840  133.3400 C   0  0  0  0  0  0  0  0  0  0  0  0
  139.4590  155.9090  132.6050 O   0  0  0  0  0  0  0  0  0  0  0  0
  139.9770  157.7030  134.0370 N   0  0  1  0  0  0  0  0  0  0  0  0
  138.6980  158.2300  133.5410 C   0  0  0  0  0  0  0  0  0  0  0  0
  139.9230  157.4930  135.4650 C   0  0  0  0  0  0  0  0  0  0  0  0
  140.6740  156.6460  136.0230 O   0  0  0  0  0  0  0  0  0  0  0  0
  139.0280  158.2210  136.2400 O   0  0  0  0  0  0  0  0  0  0  0  0
  142.0420  154.7120  133.2300 C   0  0  0  0  0  0  0  0  0  0  0  0
  141.2260  153.5830  133.1140 C   0  0  0  0  0  0  0  0  0  0  0  0
  140.0143  147.1940  131.0741 H   0  0  0  0  0  0  0  0  0  0  0  0
  139.2857  148.0195  129.6548 H   0  0  0  0  0  0  0  0  0  0  0  0
  141.0343  147.6085  129.6548 H   0  0  0  0  0  0  0  0  0  0  0  0
  142.2439  148.2372  131.5918 H   0  0  0  0  0  0  0  0  0  0  0  0
  142.5519  149.8786  131.0487 H   0  0  0  0  0  0  0  0  0  0  0  0
  142.3093  149.6301  133.6966 H   0  0  0  0  0  0  0  0  0  0  0  0
  140.3064  147.9165  133.2017 H   0  0  0  0  0  0  0  0  0  0  0  0
  139.6885  149.1398  134.1873 H   0  0  0  0  0  0  0  0  0  0  0  0
  138.5298  149.2414  131.7448 H   0  0  0  0  0  0  0  0  0  0  0  0
  139.6817  151.6570  131.2936 H   0  0  0  0  0  0  0  0  0  0  0  0
  138.9038  151.5176  132.8435 H   0  0  0  0  0  0  0  0  0  0  0  0
  143.7442  151.2495  132.8548 H   0  0  0  0  0  0  0  0  0  0  0  0
  145.1501  153.3273  133.0471 H   0  0  0  0  0  0  0  0  0  0  0  0
  144.9827  156.1775  133.3040 H   0  0  0  0  0  0  0  0  0  0  0  0
  141.7950  159.0480  131.9380 H   0  0  0  0  0  0  0  0  0  0  0  0
  140.7150  158.4200  133.8390 H   0  0  0  0  0  0  0  0  0  0  0  0
  138.0552  158.4948  134.3935 H   0  0  0  0  0  0  0  0  0  0  0  0
  138.8829  159.1252  132.9291 H   0  0  0  0  0  0  0  0  0  0  0  0
  138.1985  157.4644  132.9291 H   0  0  0  0  0  0  0  0  0  0  0  0
  140.1302  153.6771  133.1305 H   0  0  0  0  0  0  0  0  0  0  0  0
  1  2  1  0
  2  3  1  0
  3  4  1  0
  4  5  1  0
  5  6  1  0
  6  7  1  0
  7  8  1  0
  8  9  1  0
  9 10  2  0
 10 11  1  0
 11 12  2  0
 12 13  1  0
 13 14  2  0
 14 15  1  0
 15 16  1  0
 15 17  2  0
 14 18  1  0
 18 19  1  0
 19 20  2  0
 19 21  1  0
 21 22  1  0
 21 23  1  0
 23 24  2  0
 23 25  1  0
 18 26  1  0
 26 27  2  0
  6  2  1  0
 27  9  1  0
  8  4  1  0
 26 12  1  0
  1 28  1  0
  1 29  1  0
  1 30  1  0
  3 31  1  0
  3 32  1  0
  4 33  1  1
  5 34  1  0
  5 35  1  0
  6 36  1  6
  7 37  1  0
  7 38  1  0
 10 39  1  0
 11 40  1  0
 13 41  1  0
 16 42  1  0
 21 43  1  1
 22 44  1  0
 22 45  1  0
 22 46  1  0
 27 47  1  0
M  CHG  3  16  -1  21   1  25  -1
M  END
>  <UniqueID>  (1) 
1

>  <SMILES>  (1) 
CN1C[C@@H]2C[C@H]1CN2c1ccc2cc(C([NH-])=O)n(C(=O)[NH+](C)C(=O)[O-])c2c1

>  <Energy>  (1) 
126.88782516364951

>  <Genealogy>  (1) 
CN1CC2CC1CN2c1ccc2cc(C([NH-])=O)n(C(=O)[NH+](C)C(=O)[O-])c2c1 (protonated)
CN1C[C@@H]2C[C@H]1CN2c1ccc2cc(C([NH-])=O)n(C(=O)[NH+](C)C(=O)[O-])c2c1 (chirality)
CN1C[C@@H]2C[C@H]1CN2c1ccc2cc(C([NH-])=O)n(C(=O)[NH+](C)C(=O)[O-])c2c1 (3D coordinates assigned)
CN1C[C@@H]2C[C@H]1CN2c1ccc2cc(C([NH-])=O)n(C(=O)[NH+](C)C(=O)[O-])c2c1 (nonaromatic ring conformer: 126.88782516364951 kcal/mol)

>  <smiles>  (1) 
CN(C(=O)O)C(=O)n1c(C(N)=O)cc2ccc(N3CC4CC3CN4C)cc21

>  <score_type>  (1) 
oracle

>  <origin>  (1) 
adg

>  <m_score__min__energy>  (1) 
-7.3899999999999997

>  <m_primary>  (1) 
energy

$$$$
1:0
     RDKit          3D

 44 45  0  0  0  0  0  0  0  0999 V2000
  140.4280  156.1990  134.1540 C   0  0  0  0  0  0  0  0  0  0  0  0
  141.3710  155.3090  134.9810 C   0  0  0  0  0  0  0  0  0  0  0  0
  142.0460  156.1720  136.0630 C   0  0  0  0  0  0  0  0  0  0  0  0
  142.4330  154.6080  134.0770 C   0  0  2  0  0  0  0  0  0  0  0  0
  142.9490  155.4980  133.0240 N   0  0  0  0  0  0  0  0  0  0  0  0
  143.7730  156.6710  133.2050 C   0  0  0  0  0  0  0  0  0  0  0  0
  145.1930  156.6180  133.1800 C   0  0  0  0  0  0  0  0  0  0  0  0
  145.9620  157.7800  133.3630 C   0  0  0  0  0  0  0  0  0  0  0  0
  145.2920  158.9820  133.5620 C   0  0  0  0  0  0  0  0  0  0  0  0
  145.7850  160.2490  133.7820 C   0  0  0  0  0  0  0  0  0  0  0  0
  144.6620  161.0630  133.9230 C   0  0  0  0  0  0  0  0  0  0  0  0
  144.7290  162.5260  134.1170 C   0  0  0  0  0  0  0  0  0  0  0  0
  143.9860  163.4130  133.2850 N   0  0  0  0  0  0  0  0  0  0  0  0
  145.4790  163.0030  135.0100 O   0  0  0  0  0  0  0  0  0  0  0  0
  143.5230  160.3250  133.7950 N   0  0  0  0  0  0  0  0  0  0  0  0
  142.1640  160.7680  133.9330 C   0  0  0  0  0  0  0  0  0  0  0  0
  141.8850  161.9780  133.7160 O   0  0  0  0  0  0  0  0  0  0  0  0
  141.1260  159.8420  134.3140 N   0  0  0  0  0  0  0  0  0  0  0  0
  140.1860  159.3470  133.3030 C   0  0  0  0  0  0  0  0  0  0  0  0
  141.0560  159.3300  135.6600 C   0  0  0  0  0  0  0  0  0  0  0  0
  139.9740  158.8630  136.1080 O   0  0  0  0  0  0  0  0  0  0  0  0
  142.1800  159.3220  136.4770 O   0  0  0  0  0  0  0  0  0  0  0  0
  143.9270  159.0550  133.5790 C   0  0  0  0  0  0  0  0  0  0  0  0
  143.1360  157.9140  133.4230 C   0  0  0  0  0  0  0  0  0  0  0  0
  141.9910  153.2980  133.4720 C   0  0  0  0  0  0  0  0  0  0  0  0
  141.7730  152.2820  134.1860 O   0  0  0  0  0  0  0  0  0  0  0  0
  141.8060  153.2110  132.0990 O   0  0  0  0  0  0  0  0  0  0  0  0
  139.7976  156.7940  134.8312 H   0  0  0  0  0  0  0  0  0  0  0  0
  141.0224  156.8730  133.5196 H   0  0  0  0  0  0  0  0  0  0  0  0
  139.7895  155.5666  133.5196 H   0  0  0  0  0  0  0  0  0  0  0  0
  140.7859  154.5104  135.4604 H   0  0  0  0  0  0  0  0  0  0  0  0
  141.7578  155.8035  137.0586 H   0  0  0  0  0  0  0  0  0  0  0  0
  143.1387  156.1112  135.9517 H   0  0  0  0  0  0  0  0  0  0  0  0
  141.7238  157.2178  135.9517 H   0  0  0  0  0  0  0  0  0  0  0  0
  143.2456  154.3658  134.7777 H   0  0  0  0  0  0  0  0  0  0  0  0
  142.7550  155.2010  132.0410 H   0  0  0  0  0  0  0  0  0  0  0  0
  145.6970  155.6543  133.0151 H   0  0  0  0  0  0  0  0  0  0  0  0
  147.0612  157.7398  133.3492 H   0  0  0  0  0  0  0  0  0  0  0  0
  146.8406  160.5539  133.8352 H   0  0  0  0  0  0  0  0  0  0  0  0
  143.0540  163.7770  133.5850 H   0  0  0  0  0  0  0  0  0  0  0  0
  139.3184  158.8901  133.8015 H   0  0  0  0  0  0  0  0  0  0  0  0
  139.8488  160.1845  132.6746 H   0  0  0  0  0  0  0  0  0  0  0  0
  140.6858  158.5951  132.6746 H   0  0  0  0  0  0  0  0  0  0  0  0
  142.0390  157.9815  133.4689 H   0  0  0  0  0  0  0  0  0  0  0  0
  1  2  1  0
  2  3  1  0
  2  4  1  0
  4  5  1  0
  5  6  1  0
  6  7  2  0
  7  8  1  0
  8  9  2  0
  9 10  1  0
 10 11  2  0
 11 12  1  0
 12 13  1  0
 12 14  2  0
 11 15  1  0
 15 16  1  0
 16 17  2  0
 16 18  1  0
 18 19  1  0
 18 20  1  0
 20 21  2  0
 20 22  1  0
 15 23  1  0
 23 24  2  0
  4 25  1  0
 25 26  2  0
 25 27  1  0
 24  6  1  0
 23  9  1  0
  1 28  1  0
  1 29  1  0
  1 30  1  0
  2 31  1  0
  3 32  1  0
  3 33  1  0
  3 34  1  0
  4 35  1  1
  5 36  1  0
  7 37  1  0
  8 38  1  0
 10 39  1  0
 13 40  1  0
 19 41  1  0
 19 42  1  0
 19 43  1  0
 24 44  1  0
M  CHG  3  13  -1  22  -1  27  -1
M  END
>  <UniqueID>  (2) 
2

>  <SMILES>  (2) 
CC(C)[C@H](Nc1ccc2cc(C([NH-])=O)n(C(=O)N(C)C(=O)[O-])c2c1)C(=O)[O-]

>  <Energy>  (2) 
84.90787522054544

>  <Genealogy>  (2) 
CC(C)[C@H](Nc1ccc2cc(C([NH-])=O)n(C(=O)N(C)C(=O)[O-])c2c1)C(=O)[O-] (protonated)
CC(C)[C@H](Nc1ccc2cc(C([NH-])=O)n(C(=O)N(C)C(=O)[O-])c2c1)C(=O)[O-] (3D coordinates assigned)
CC(C)[C@H](Nc1ccc2cc(C([NH-])=O)n(C(=O)N(C)C(=O)[O-])c2c1)C(=O)[O-] (optimized conformer: 84.90787522054544 kcal/mol)

>  <smiles>  (2) 
CC(C)[C@H](Nc1ccc2cc(C(N)=O)n(C(=O)N(C)C(=O)O)c2c1)C(=O)O

>  <score_type>  (2) 
oracle

>  <origin>  (2) 
adg

>  <m_score__min__energy>  (2) 
-7.1500000000000004

>  <m_primary>  (2) 
energy

$$$$
2:0
     RDKit          3D

 33 34  0  0  0  0  0  0  0  0999 V2000
  143.2340  156.3180  135.3070 C   0  0  0  0  0  0  0  0  0  0  0  0
  142.6910  157.4700  134.5870 N   0  0  0  0  0  0  0  0  0  0  0  0
  143.3740  157.9610  133.4180 C   0  0  0  0  0  0  0  0  0  0  0  0
  142.8400  157.8480  132.2810 O   0  0  0  0  0  0  0  0  0  0  0  0
  144.6670  158.5700  133.5200 N   0  0  0  0  0  0  0  0  0  0  0  0
  144.9620  159.8920  133.6570 C   0  0  0  0  0  0  0  0  0  0  0  0
  143.9810  160.9970  133.6990 C   0  0  0  0  0  0  0  0  0  0  0  0
  142.6140  160.7790  133.3610 N   0  0  0  0  0  0  0  0  0  0  0  0
  144.3560  162.1530  134.0300 O   0  0  0  0  0  0  0  0  0  0  0  0
  146.3440  160.0760  133.7110 C   0  0  0  0  0  0  0  0  0  0  0  0
  146.8860  158.8150  133.5890 C   0  0  0  0  0  0  0  0  0  0  0  0
  148.2140  158.4050  133.5650 C   0  0  0  0  0  0  0  0  0  0  0  0
  148.4780  157.0310  133.4230 C   0  0  0  0  0  0  0  0  0  0  0  0
  147.4160  156.0940  133.3260 C   0  0  0  0  0  0  0  0  0  0  0  0
  147.7120  154.6290  133.1280 C   0  0  0  0  0  0  0  0  0  0  0  0
  148.7730  154.4940  132.2520 F   0  0  0  0  0  0  0  0  0  0  0  0
  146.6100  153.9740  132.6060 F   0  0  0  0  0  0  0  0  0  0  0  0
  148.0410  154.0310  134.3320 F   0  0  0  0  0  0  0  0  0  0  0  0
  146.0780  156.5550  133.3300 C   0  0  0  0  0  0  0  0  0  0  0  0
  145.8510  157.9260  133.4700 C   0  0  0  0  0  0  0  0  0  0  0  0
  141.2410  158.2810  135.1840 P   0  0  2  0  0  0  0  0  0  0  0  0
  141.6020  159.1730  136.3470 O   0  0  0  0  0  0  0  0  0  0  0  0
  140.1150  157.1260  135.6930 O   0  0  0  0  0  0  0  0  0  0  0  0
  140.5420  159.2240  133.9650 O   0  0  0  0  0  0  0  0  0  0  0  0
  143.1525  156.4910  136.3903 H   0  0  0  0  0  0  0  0  0  0  0  0
  142.6665  155.4155  135.0361 H   0  0  0  0  0  0  0  0  0  0  0  0
  144.2913  156.1814  135.0361 H   0  0  0  0  0  0  0  0  0  0  0  0
  142.3160  159.9140  132.8560 H   0  0  0  0  0  0  0  0  0  0  0  0
  146.8860  161.0262  133.8265 H   0  0  0  0  0  0  0  0  0  0  0  0
  149.0336  159.1332  133.6544 H   0  0  0  0  0  0  0  0  0  0  0  0
  149.5193  156.6783  133.3867 H   0  0  0  0  0  0  0  0  0  0  0  0
  145.2386  155.8518  133.2256 H   0  0  0  0  0  0  0  0  0  0  0  0
  141.1860  159.1820  133.2140 H   0  0  0  0  0  0  0  0  0  0  0  0
  1  2  1  0
  2  3  1  0
  3  4  2  0
  3  5  1  0
  5  6  1  0
  6  7  1  0
  7  8  1  0
  7  9  2  0
  6 10  2  0
 10 11  1  0
 11 12  2  0
 12 13  1  0
 13 14  2  0
 14 15  1  0
 15 16  1  0
 15 17  1  0
 15 18  1  0
 14 19  1  0
 19 20  2  0
  2 21  1  0
 21 22  2  0
 21 23  1  1
 21 24  1  0
 20  5  1  0
 20 11  1  0
  1 25  1  0
  1 26  1  0
  1 27  1  0
  8 28  1  0
 10 29  1  0
 12 30  1  0
 13 31  1  0
 19 32  1  0
 24 33  1  0
M  CHG  2   8  -1  23  -1
M  END
>  <UniqueID>  (3) 
3

>  <SMILES>  (3) 
CN(C(=O)n1c(C([NH-])=O)cc2ccc(C(F)(F)F)cc21)[P@](=O)([O-])O

>  <Energy>  (3) 
68.62334890640957

>  <Genealogy>  (3) 
CN(C(=O)n1c(C([NH-])=O)cc2ccc(C(F)(F)F)cc21)P(=O)([O-])O (protonated)
CN(C(=O)n1c(C([NH-])=O)cc2ccc(C(F)(F)F)cc21)[P@](=O)([O-])O (chirality)
CN(C(=O)n1c(C([NH-])=O)cc2ccc(C(F)(F)F)cc21)[P@](=O)([O-])O (3D coordinates assigned)
CN(C(=O)n1c(C([NH-])=O)cc2ccc(C(F)(F)F)cc21)[P@](=O)([O-])O (optimized conformer: 68.62334890640957 kcal/mol)

>  <smiles>  (3) 
CN(C(=O)n1c(C(N)=O)cc2ccc(C(F)(F)F)cc21)P(=O)(O)O

>  <score_type>  (3) 
oracle

>  <origin>  (3) 
adg

>  <m_score__min__energy>  (3) 
-5.4100000000000001

>  <m_primary>  (3) 
energy

$$$$
3:0
     RDKit          3D

 38 39  0  0  0  0  0  0  0  0999 V2000
  146.7790  151.8310  132.2310 C   0  0  0  0  0  0  0  0  0  0  0  0
  148.1720  151.3830  132.3370 N   0  0  0  0  0  0  0  0  0  0  0  0
  148.4980  149.9540  132.2740 C   0  0  0  0  0  0  0  0  0  0  0  0
  149.2350  152.3410  132.5070 C   0  0  0  0  0  0  0  0  0  0  0  0
  150.4310  151.9550  132.5980 O   0  0  0  0  0  0  0  0  0  0  0  0
  148.9610  153.7540  132.5760 C   0  0  0  0  0  0  0  0  0  0  0  0
  148.7220  154.9340  132.6330 C   0  0  0  0  0  0  0  0  0  0  0  0
  148.4460  156.2730  132.7020 O   0  0  0  0  0  0  0  0  0  0  0  0
  147.7340  156.8270  133.7690 C   0  0  0  0  0  0  0  0  0  0  0  0
  147.8900  156.3780  134.9390 O   0  0  0  0  0  0  0  0  0  0  0  0
  146.8210  157.9120  133.5360 N   0  0  0  0  0  0  0  0  0  0  0  0
  147.0940  159.1180  132.9640 C   0  0  0  0  0  0  0  0  0  0  0  0
  148.4360  159.6220  132.6060 C   0  0  0  0  0  0  0  0  0  0  0  0
  149.6120  158.8590  132.8860 N   0  0  0  0  0  0  0  0  0  0  0  0
  148.5510  160.7690  132.0970 O   0  0  0  0  0  0  0  0  0  0  0  0
  145.9290  159.8590  132.7940 C   0  0  0  0  0  0  0  0  0  0  0  0
  144.9210  159.0700  133.2980 C   0  0  0  0  0  0  0  0  0  0  0  0
  143.5510  159.3020  133.3580 C   0  0  0  0  0  0  0  0  0  0  0  0
  142.7330  158.2900  133.8880 C   0  0  0  0  0  0  0  0  0  0  0  0
  143.2950  157.0730  134.3520 C   0  0  0  0  0  0  0  0  0  0  0  0
  142.4000  155.9690  134.8570 C   0  0  0  0  0  0  0  0  0  0  0  0
  141.8400  156.3140  136.0750 F   0  0  0  0  0  0  0  0  0  0  0  0
  141.3730  155.7250  133.9630 F   0  0  0  0  0  0  0  0  0  0  0  0
  143.1450  154.8150  135.0140 F   0  0  0  0  0  0  0  0  0  0  0  0
  144.6890  156.8640  134.2490 C   0  0  0  0  0  0  0  0  0  0  0  0
  145.4840  157.8990  133.7370 C   0  0  0  0  0  0  0  0  0  0  0  0
  146.3595  151.9659  133.2389 H   0  0  0  0  0  0  0  0  0  0  0  0
  146.7415  152.7865  131.6873 H   0  0  0  0  0  0  0  0  0  0  0  0
  146.1915  151.0765  131.6873 H   0  0  0  0  0  0  0  0  0  0  0  0
  148.5894  149.5534  133.2944 H   0  0  0  0  0  0  0  0  0  0  0  0
  147.6989  149.4188  131.7402 H   0  0  0  0  0  0  0  0  0  0  0  0
  149.4502  149.8183  131.7402 H   0  0  0  0  0  0  0  0  0  0  0  0
  150.5480  159.2140  132.5890 H   0  0  0  0  0  0  0  0  0  0  0  0
  149.5660  157.9890  133.4600 H   0  0  0  0  0  0  0  0  0  0  0  0
  145.8341  160.8615  132.3513 H   0  0  0  0  0  0  0  0  0  0  0  0
  143.1207  160.2494  133.0012 H   0  0  0  0  0  0  0  0  0  0  0  0
  141.6451  158.4431  133.9437 H   0  0  0  0  0  0  0  0  0  0  0  0
  145.1398  155.9111  134.5633 H   0  0  0  0  0  0  0  0  0  0  0  0
  1  2  1  0
  2  3  1  0
  2  4  1  0
  4  5  2  0
  4  6  1  0
  6  7  3  0
  7  8  1  0
  8  9  1  0
  9 10  2  0
  9 11  1  0
 11 12  1  0
 12 13  1  0
 13 14  1  0
 13 15  2  0
 12 16  2  0
 16 17  1  0
 17 18  2  0
 18 19  1  0
 19 20  2  0
 20 21  1  0
 21 22  1  0
 21 23  1  0
 21 24  1  0
 20 25  1  0
 25 26  2  0
 26 11  1  0
 26 17  1  0
  1 27  1  0
  1 28  1  0
  1 29  1  0
  3 30  1  0
  3 31  1  0
  3 32  1  0
 14 33  1  0
 14 34  1  0
 16 35  1  0
 18 36  1  0
 19 37  1  0
 25 38  1  0
M  END
>  <UniqueID>  (4) 
4

>  <SMILES>  (4) 
CN(C)C(=O)C#COC(=O)n1c(C(N)=O)cc2ccc(C(F)(F)F)cc21

>  <Energy>  (4) 
71.71711493305688

>  <Genealogy>  (4) 
CN(C)C(=O)C#COC(=O)n1c(C(N)=O)cc2ccc(C(F)(F)F)cc21 (3D coordinates assigned)
CN(C)C(=O)C#COC(=O)n1c(C(N)=O)cc2ccc(C(F)(F)F)cc21 (optimized conformer: 71.71711493305688 kcal/mol)

>  <smiles>  (4) 
CN(C)C(=O)C#COC(=O)n1c(C(N)=O)cc2ccc(C(F)(F)F)cc21

>  <score_type>  (4) 
oracle

>  <origin>  (4) 
adg

>  <m_score__min__energy>  (4) 
-7.6200000000000001

>  <m_primary>  (4) 
energy

$$$$
4:0
     RDKit          3D

 47 48  0  0  0  0  0  0  0  0999 V2000
  149.2620  161.5290  130.7430 C   0  0  0  0  0  0  0  0  0  0  0  0
  148.8560  160.2290  131.3690 C   0  0  0  0  0  0  0  0  0  0  0  0
  149.7190  159.1070  131.3140 C   0  0  0  0  0  0  0  0  0  0  0  0
  149.3260  157.8750  131.8630 C   0  0  0  0  0  0  0  0  0  0  0  0
  148.0700  157.7960  132.4560 C   0  0  0  0  0  0  0  0  0  0  0  0
  147.4290  156.7230  133.0330 C   0  0  0  0  0  0  0  0  0  0  0  0
  146.1870  157.2090  133.4400 C   0  0  0  0  0  0  0  0  0  0  0  0
  145.1930  156.3950  134.1720 C   0  0  0  0  0  0  0  0  0  0  0  0
  143.8700  156.2240  133.6700 N   0  0  0  0  0  0  0  0  0  0  0  0
  145.5050  155.8760  135.2770 O   0  0  0  0  0  0  0  0  0  0  0  0
  146.0650  158.5290  133.1240 N   0  0  0  0  0  0  0  0  0  0  0  0
  144.9190  159.3740  133.3020 C   0  0  0  0  0  0  0  0  0  0  0  0
  145.0770  160.5610  133.6980 O   0  0  0  0  0  0  0  0  0  0  0  0
  143.6030  158.8570  133.0480 N   0  0  0  0  0  0  0  0  0  0  0  0
  142.3900  159.5580  133.3670 C   0  0  0  0  0  0  0  0  0  0  0  0
  142.4190  160.7750  133.6940 O   0  0  0  0  0  0  0  0  0  0  0  0
  141.1010  158.8530  133.3340 C   0  0  0  0  0  0  0  0  0  0  0  0
  140.0250  159.5100  133.2850 O   0  0  0  0  0  0  0  0  0  0  0  0
  141.0750  157.4530  133.3810 O   0  0  0  0  0  0  0  0  0  0  0  0
  139.8710  156.6950  133.4540 C   0  0  0  0  0  0  0  0  0  0  0  0
  140.1430  155.2570  133.1340 C   0  0  0  0  0  0  0  0  0  0  0  0
  139.1780  154.4650  132.9600 O   0  0  0  0  0  0  0  0  0  0  0  0
  141.4950  154.7940  133.0050 N   0  0  0  0  0  0  0  0  0  0  0  0
  141.8270  153.3730  132.8590 C   0  0  0  0  0  0  0  0  0  0  0  0
  141.3880  152.6010  134.1080 C   0  0  0  0  0  0  0  0  0  0  0  0
  143.3320  153.1980  132.6280 C   0  0  0  0  0  0  0  0  0  0  0  0
  147.2250  158.8730  132.5210 C   0  0  0  0  0  0  0  0  0  0  0  0
  147.5810  160.1060  131.9630 C   0  0  0  0  0  0  0  0  0  0  0  0
  149.4904  162.2605  131.5322 H   0  0  0  0  0  0  0  0  0  0  0  0
  150.1541  161.3726  130.1187 H   0  0  0  0  0  0  0  0  0  0  0  0
  148.4394  161.9080  130.1187 H   0  0  0  0  0  0  0  0  0  0  0  0
  150.7058  159.2012  130.8371 H   0  0  0  0  0  0  0  0  0  0  0  0
  149.9910  156.9996  131.8252 H   0  0  0  0  0  0  0  0  0  0  0  0
  147.8148  155.6994  133.1485 H   0  0  0  0  0  0  0  0  0  0  0  0
  143.1240  156.9270  133.8710 H   0  0  0  0  0  0  0  0  0  0  0  0
  143.5330  157.8990  132.6390 H   0  0  0  0  0  0  0  0  0  0  0  0
  139.4566  156.7687  134.4703 H   0  0  0  0  0  0  0  0  0  0  0  0
  139.1513  157.0945  132.7243 H   0  0  0  0  0  0  0  0  0  0  0  0
  142.2640  155.5010  133.0280 H   0  0  0  0  0  0  0  0  0  0  0  0
  141.2909  152.9719  131.9862 H   0  0  0  0  0  0  0  0  0  0  0  0
  141.7008  153.1510  135.0078 H   0  0  0  0  0  0  0  0  0  0  0  0
  140.2933  152.4929  134.1063 H   0  0  0  0  0  0  0  0  0  0  0  0
  141.8548  151.6050  134.1063 H   0  0  0  0  0  0  0  0  0  0  0  0
  143.8473  153.1381  133.5980 H   0  0  0  0  0  0  0  0  0  0  0  0
  143.5107  152.2730  132.0601 H   0  0  0  0  0  0  0  0  0  0  0  0
  143.7182  154.0573  132.0601 H   0  0  0  0  0  0  0  0  0  0  0  0
  146.8852  160.9577  131.9865 H   0  0  0  0  0  0  0  0  0  0  0  0
  1  2  1  0
  2  3  2  0
  3  4  1  0
  4  5  2  0
  5  6  1  0
  6  7  2  0
  7  8  1  0
  8  9  1  0
  8 10  2  0
  7 11  1  0
 11 12  1  0
 12 13  2  0
 12 14  1  0
 14 15  1  0
 15 16  2  0
 15 17  1  0
 17 18  2  0
 17 19  1  0
 19 20  1  0
 20 21  1  0
 21 22  2  0
 21 23  1  0
 23 24  1  0
 24 25  1  0
 24 26  1  0
 11 27  1  0
 27 28  2  0
 28  2  1  0
 27  5  1  0
  1 29  1  0
  1 30  1  0
  1 31  1  0
  3 32  1  0
  4 33  1  0
  6 34  1  0
  9 35  1  0
 14 36  1  0
 20 37  1  0
 20 38  1  0
 23 39  1  0
 24 40  1  0
 25 41  1  0
 25 42  1  0
 25 43  1  0
 26 44  1  0
 26 45  1  0
 26 46  1  0
 28 47  1  0
M  CHG  1   9  -1
M  END
>  <UniqueID>  (5) 
5

>  <SMILES>  (5) 
Cc1ccc2cc(C([NH-])=O)n(C(=O)NC(=O)C(=O)OCC(=O)NC(C)C)c2c1

>  <Energy>  (5) 
73.9613453643975

>  <Genealogy>  (5) 
Cc1ccc2cc(C([NH-])=O)n(C(=O)NC(=O)C(=O)OCC(=O)NC(C)C)c2c1 (protonated)
Cc1ccc2cc(C([NH-])=O)n(C(=O)NC(=O)C(=O)OCC(=O)NC(C)C)c2c1 (3D coordinates assigned)
Cc1ccc2cc(C([NH-])=O)n(C(=O)NC(=O)C(=O)OCC(=O)NC(C)C)c2c1 (optimized conformer: 73.9613453643975 kcal/mol)

>  <smiles>  (5) 
Cc1ccc2cc(C(N)=O)n(C(=O)NC(=O)C(=O)OCC(=O)NC(C)C)c2c1

>  <score_type>  (5) 
oracle

>  <origin>  (5) 
adg

>  <m_score__min__energy>  (5) 
-7.5599999999999996

>  <m_primary>  (5) 
energy

$$$$
5:0
     RDKit          3D

 40 42  0  0  0  0  0  0  0  0999 V2000
  143.7210  155.9920  135.0940 C   0  0  0  0  0  0  0  0  0  0  0  0
  143.1270  157.2100  134.5390 N   0  0  0  0  0  0  0  0  0  0  0  0
  143.6490  157.7650  133.3160 C   0  0  0  0  0  0  0  0  0  0  0  0
  143.0050  157.6400  132.2390 O   0  0  0  0  0  0  0  0  0  0  0  0
  144.8960  158.4730  133.3100 N   0  0  0  0  0  0  0  0  0  0  0  0
  145.1040  159.8010  133.5240 C   0  0  0  0  0  0  0  0  0  0  0  0
  144.0500  160.8240  133.6970 C   0  0  0  0  0  0  0  0  0  0  0  0
  142.6950  160.5470  133.3560 N   0  0  0  0  0  0  0  0  0  0  0  0
  144.3550  161.9670  134.1310 O   0  0  0  0  0  0  0  0  0  0  0  0
  146.4690  160.0850  133.5140 C   0  0  0  0  0  0  0  0  0  0  0  0
  147.0920  158.8780  133.2880 C   0  0  0  0  0  0  0  0  0  0  0  0
  148.4460  158.5670  133.1950 C   0  0  0  0  0  0  0  0  0  0  0  0
  148.8010  157.2240  132.9790 C   0  0  0  0  0  0  0  0  0  0  0  0
  147.8020  156.2220  132.8690 C   0  0  0  0  0  0  0  0  0  0  0  0
  148.1830  154.7860  132.6480 C   0  0  0  0  0  0  0  0  0  0  0  0
  149.5010  154.7130  132.2330 F   0  0  0  0  0  0  0  0  0  0  0  0
  148.0350  154.0780  133.8270 F   0  0  0  0  0  0  0  0  0  0  0  0
  146.4390  156.5750  132.9740 C   0  0  0  0  0  0  0  0  0  0  0  0
  146.1180  157.9210  133.1720 C   0  0  0  0  0  0  0  0  0  0  0  0
  141.8820  157.7340  135.1100 C   0  0  0  0  0  0  0  0  0  0  0  0
  140.6320  157.6860  134.2120 C   0  0  0  0  0  0  0  0  0  0  0  0
  140.6720  158.6430  133.1850 O   0  0  0  0  0  0  0  0  0  0  0  0
  142.0580  158.8600  136.1240 C   0  0  0  0  0  0  0  0  0  0  0  0
  141.7050  157.4540  136.5980 C   0  0  0  0  0  0  0  0  0  0  0  0
  143.6974  156.0403  136.1927 H   0  0  0  0  0  0  0  0  0  0  0  0
  143.1486  155.1167  134.7531 H   0  0  0  0  0  0  0  0  0  0  0  0
  144.7631  155.9041  134.7531 H   0  0  0  0  0  0  0  0  0  0  0  0
  142.4560  159.7960  132.6710 H   0  0  0  0  0  0  0  0  0  0  0  0
  146.9469  161.0655  133.6565 H   0  0  0  0  0  0  0  0  0  0  0  0
  149.2146  159.3484  133.2877 H   0  0  0  0  0  0  0  0  0  0  0  0
  149.8623  156.9474  132.8945 H   0  0  0  0  0  0  0  0  0  0  0  0
  147.5297  154.3539  131.8757 H   0  0  0  0  0  0  0  0  0  0  0  0
  145.6507  155.8112  132.9019 H   0  0  0  0  0  0  0  0  0  0  0  0
  140.5604  156.6858  133.7599 H   0  0  0  0  0  0  0  0  0  0  0  0
  139.7582  157.9077  134.8424 H   0  0  0  0  0  0  0  0  0  0  0  0
  141.6030  158.9850  133.1460 H   0  0  0  0  0  0  0  0  0  0  0  0
  143.0589  159.2717  136.3206 H   0  0  0  0  0  0  0  0  0  0  0  0
  141.6201  159.8598  136.2602 H   0  0  0  0  0  0  0  0  0  0  0  0
  142.4513  156.8518  137.1368 H   0  0  0  0  0  0  0  0  0  0  0  0
  140.9068  157.0199  137.2181 H   0  0  0  0  0  0  0  0  0  0  0  0
  1  2  1  0
  2  3  1  0
  3  4  2  0
  3  5  1  0
  5  6  1  0
  6  7  1  0
  7  8  1  0
  7  9  2  0
  6 10  2  0
 10 11  1  0
 11 12  2  0
 12 13  1  0
 13 14  2  0
 14 15  1  0
 15 16  1  0
 15 17  1  0
 14 18  1  0
 18 19  2  0
  2 20  1  0
 20 21  1  0
 21 22  1  0
 20 23  1  0
 23 24  1  0
 19  5  1  0
 24 20  1  0
 19 11  1  0
  1 25  1  0
  1 26  1  0
  1 27  1  0
  8 28  1  0
 10 29  1  0
 12 30  1  0
 13 31  1  0
 15 32  1  0
 18 33  1  0
 21 34  1  0
 21 35  1  0
 22 36  1  0
 23 37  1  0
 23 38  1  0
 24 39  1  0
 24 40  1  0
M  CHG  1   8  -1
M  END
>  <UniqueID>  (6) 
6

>  <SMILES>  (6) 
CN(C(=O)n1c(C([NH-])=O)cc2ccc(C(F)F)cc21)C1(CO)CC1

>  <Energy>  (6) 
345.74755670475275

>  <Genealogy>  (6) 
CN(C(=O)n1c(C([NH-])=O)cc2ccc(C(F)F)cc21)C1(CO)CC1 (protonated)
CN(C(=O)n1c(C([NH-])=O)cc2ccc(C(F)F)cc21)C1(CO)CC1 (3D coordinates assigned)
CN(C(=O)n1c(C([NH-])=O)cc2ccc(C(F)F)cc21)C1(CO)CC1 (nonaromatic ring conformer: 345.74755670475275 kcal/mol)

>  <smiles>  (6) 
CN(C(=O)n1c(C(N)=O)cc2ccc(C(F)F)cc21)C1(CO)CC1

>  <score_type>  (6) 
oracle

>  <origin>  (6) 
adg

>  <m_score__min__energy>  (6) 
-5.5300000000000002

>  <m_primary>  (6) 
energy

$$$$
6:0
     RDKit          3D

 44 45  0  0  0  0  0  0  0  0999 V2000
  141.3060  153.9990  133.7710 C   0  0  0  0  0  0  0  0  0  0  0  0
  141.3930  155.3190  133.5700 C   0  0  0  0  0  0  0  0  0  0  0  0
  142.5940  155.8520  132.9850 N   0  0  0  0  0  0  0  0  0  0  0  0
  143.8180  156.0930  133.7550 C   0  0  0  0  0  0  0  0  0  0  0  0
  144.4620  157.3990  133.3640 C   0  0  0  0  0  0  0  0  0  0  0  0
  143.7750  158.2630  132.7460 O   0  0  0  0  0  0  0  0  0  0  0  0
  145.8270  157.7040  133.7260 N   0  0  0  0  0  0  0  0  0  0  0  0
  146.4330  158.9470  133.2410 C   0  0  0  0  0  0  0  0  0  0  0  0
  146.6140  156.7720  134.5390 C   0  0  0  0  0  0  0  0  0  0  0  0
  140.2890  156.2200  133.9950 C   0  0  0  0  0  0  0  0  0  0  0  0
  139.1030  155.9730  133.6410 O   0  0  0  0  0  0  0  0  0  0  0  0
  140.5480  157.3670  134.8240 N   0  0  0  0  0  0  0  0  0  0  0  0
  140.4750  158.6810  134.4670 C   0  0  0  0  0  0  0  0  0  0  0  0
  140.2030  159.1830  133.1000 C   0  0  0  0  0  0  0  0  0  0  0  0
  141.1700  159.0340  132.0560 N   0  0  0  0  0  0  0  0  0  0  0  0
  139.1060  159.7430  132.8390 O   0  0  0  0  0  0  0  0  0  0  0  0
  140.7850  159.4960  135.5560 C   0  0  0  0  0  0  0  0  0  0  0  0
  141.0400  158.6350  136.5970 C   0  0  0  0  0  0  0  0  0  0  0  0
  141.4280  158.9020  137.9060 C   0  0  0  0  0  0  0  0  0  0  0  0
  141.6560  157.8100  138.7620 C   0  0  0  0  0  0  0  0  0  0  0  0
  141.4660  156.4830  138.3030 C   0  0  0  0  0  0  0  0  0  0  0  0
  141.7590  155.3210  139.2040 C   0  0  0  0  0  0  0  0  0  0  0  0
  141.0730  156.2500  136.9690 C   0  0  0  0  0  0  0  0  0  0  0  0
  140.8840  157.3550  136.1320 C   0  0  0  0  0  0  0  0  0  0  0  0
  140.3969  153.5693  134.2171 H   0  0  0  0  0  0  0  0  0  0  0  0
  142.1435  153.3435  133.4902 H   0  0  0  0  0  0  0  0  0  0  0  0
  142.5380  156.2820  132.0340 H   0  0  0  0  0  0  0  0  0  0  0  0
  143.5678  156.1231  134.8258 H   0  0  0  0  0  0  0  0  0  0  0  0
  144.5271  155.2790  133.5442 H   0  0  0  0  0  0  0  0  0  0  0  0
  146.7350  159.5665  134.0983 H   0  0  0  0  0  0  0  0  0  0  0  0
  147.3167  158.7102  132.6303 H   0  0  0  0  0  0  0  0  0  0  0  0
  145.7021  159.4973  132.6303 H   0  0  0  0  0  0  0  0  0  0  0  0
  146.4398  156.9783  135.6053 H   0  0  0  0  0  0  0  0  0  0  0  0
  146.3102  155.7397  134.3109 H   0  0  0  0  0  0  0  0  0  0  0  0
  147.6826  156.8986  134.3109 H   0  0  0  0  0  0  0  0  0  0  0  0
  140.9540  159.3760  131.0930 H   0  0  0  0  0  0  0  0  0  0  0  0
  142.1070  158.6080  132.2340 H   0  0  0  0  0  0  0  0  0  0  0  0
  140.8184  160.5953  135.5772 H   0  0  0  0  0  0  0  0  0  0  0  0
  141.5526  159.9358  138.2606 H   0  0  0  0  0  0  0  0  0  0  0  0
  141.9846  157.9874  139.7967 H   0  0  0  0  0  0  0  0  0  0  0  0
  141.6783  155.6411  140.2533 H   0  0  0  0  0  0  0  0  0  0  0  0
  141.0360  154.5151  139.0099 H   0  0  0  0  0  0  0  0  0  0  0  0
  142.7777  154.9543  139.0099 H   0  0  0  0  0  0  0  0  0  0  0  0
  140.9191  155.2266  136.5963 H   0  0  0  0  0  0  0  0  0  0  0  0
  1  2  2  0
  2  3  1  0
  3  4  1  0
  4  5  1  0
  5  6  2  0
  5  7  1  0
  7  8  1  0
  7  9  1  0
  2 10  1  0
 10 11  2  0
 10 12  1  0
 12 13  1  0
 13 14  1  0
 14 15  1  0
 14 16  2  0
 13 17  2  0
 17 18  1  0
 18 19  2  0
 19 20  1  0
 20 21  2  0
 21 22  1  0
 21 23  1  0
 23 24  2  0
 24 12  1  0
 24 18  1  0
  1 25  1  0
  1 26  1  0
  3 27  1  0
  4 28  1  0
  4 29  1  0
  8 30  1  0
  8 31  1  0
  8 32  1  0
  9 33  1  0
  9 34  1  0
  9 35  1  0
 15 36  1  0
 15 37  1  0
 17 38  1  0
 19 39  1  0
 20 40  1  0
 22 41  1  0
 22 42  1  0
 22 43  1  0
 23 44  1  0
M  END
>  <UniqueID>  (7) 
7

>  <SMILES>  (7) 
C=C(NCC(=O)N(C)C)C(=O)n1c(C(N)=O)cc2ccc(C)cc21

>  <Energy>  (7) 
77.11714452696552

>  <Genealogy>  (7) 
C=C(NCC(=O)N(C)C)C(=O)n1c(C(N)=O)cc2ccc(C)cc21 (3D coordinates assigned)
C=C(NCC(=O)N(C)C)C(=O)n1c(C(N)=O)cc2ccc(C)cc21 (optimized conformer: 77.11714452696552 kcal/mol)

>  <smiles>  (7) 
C=C(NCC(=O)N(C)C)C(=O)n1c(C(N)=O)cc2ccc(C)cc21

>  <score_type>  (7) 
oracle

>  <origin>  (7) 
adg

>  <m_score__min__energy>  (7) 
-7.4800000000000004

>  <m_primary>  (7) 
energy

$$$$
7:0
     RDKit          3D

 40 41  0  0  0  0  0  0  0  0999 V2000
  139.0640  160.0860  131.0630 C   0  0  0  0  0  0  0  0  0  0  0  0
  138.7420  158.7730  131.7650 C   0  0  0  0  0  0  0  0  0  0  0  0
  139.0050  158.8710  133.1640 O   0  0  0  0  0  0  0  0  0  0  0  0
  139.2830  157.7650  133.9740 C   0  0  0  0  0  0  0  0  0  0  0  0
  139.4720  157.9040  135.2140 O   0  0  0  0  0  0  0  0  0  0  0  0
  139.4130  156.4130  133.3540 C   0  0  0  0  0  0  0  0  0  0  0  0
  140.8450  155.9870  133.3510 C   0  0  0  0  0  0  0  0  0  0  0  0
  141.1340  154.7640  133.4620 O   0  0  0  0  0  0  0  0  0  0  0  0
  141.8450  156.9610  133.2250 O   0  0  0  0  0  0  0  0  0  0  0  0
  142.6820  157.3990  134.2590 C   0  0  0  0  0  0  0  0  0  0  0  0
  142.4860  157.0270  135.4470 O   0  0  0  0  0  0  0  0  0  0  0  0
  143.7710  158.2880  133.9550 N   0  0  0  0  0  0  0  0  0  0  0  0
  143.6900  159.6130  133.6460 C   0  0  0  0  0  0  0  0  0  0  0  0
  142.4760  160.4480  133.7310 C   0  0  0  0  0  0  0  0  0  0  0  0
  141.1830  159.8590  133.8790 N   0  0  0  0  0  0  0  0  0  0  0  0
  142.5870  161.7020  133.7290 O   0  0  0  0  0  0  0  0  0  0  0  0
  144.9350  160.1100  133.2730 C   0  0  0  0  0  0  0  0  0  0  0  0
  145.7970  159.0430  133.3750 C   0  0  0  0  0  0  0  0  0  0  0  0
  147.1590  158.9680  133.1000 C   0  0  0  0  0  0  0  0  0  0  0  0
  147.7930  157.7240  133.2510 C   0  0  0  0  0  0  0  0  0  0  0  0
  147.0610  156.5870  133.6720 C   0  0  0  0  0  0  0  0  0  0  0  0
  147.7380  155.2530  133.7780 C   0  0  0  0  0  0  0  0  0  0  0  0
  145.6760  156.6970  133.9240 C   0  0  0  0  0  0  0  0  0  0  0  0
  145.0720  157.9540  133.7870 C   0  0  0  0  0  0  0  0  0  0  0  0
  139.2553  160.8662  131.8144 H   0  0  0  0  0  0  0  0  0  0  0  0
  139.9569  159.9560  130.4338 H   0  0  0  0  0  0  0  0  0  0  0  0
  138.2123  160.3839  130.4338 H   0  0  0  0  0  0  0  0  0  0  0  0
  137.6791  158.5337  131.6134 H   0  0  0  0  0  0  0  0  0  0  0  0
  139.3761  157.9805  131.3408 H   0  0  0  0  0  0  0  0  0  0  0  0
  138.8189  155.6891  133.9311 H   0  0  0  0  0  0  0  0  0  0  0  0
  139.0468  156.4546  132.3176 H   0  0  0  0  0  0  0  0  0  0  0  0
  140.3320  160.4640  133.9010 H   0  0  0  0  0  0  0  0  0  0  0  0
  141.0720  158.8350  134.0410 H   0  0  0  0  0  0  0  0  0  0  0  0
  145.1780  161.1370  132.9628 H   0  0  0  0  0  0  0  0  0  0  0  0
  147.7216  159.8554  132.7745 H   0  0  0  0  0  0  0  0  0  0  0  0
  148.8687  157.6318  133.0402 H   0  0  0  0  0  0  0  0  0  0  0  0
  147.8704  154.9922  134.8384 H   0  0  0  0  0  0  0  0  0  0  0  0
  147.1192  154.4877  133.2867 H   0  0  0  0  0  0  0  0  0  0  0  0
  148.7210  155.3006  133.2867 H   0  0  0  0  0  0  0  0  0  0  0  0
  145.0856  155.8175  134.2206 H   0  0  0  0  0  0  0  0  0  0  0  0
  1  2  1  0
  2  3  1  0
  3  4  1  0
  4  5  2  0
  4  6  1  0
  6  7  1  0
  7  8  2  0
  7  9  1  0
  9 10  1  0
 10 11  2  0
 10 12  1  0
 12 13  1  0
 13 14  1  0
 14 15  1  0
 14 16  2  0
 13 17  2  0
 17 18  1  0
 18 19  2  0
 19 20  1  0
 20 21  2  0
 21 22  1  0
 21 23  1  0
 23 24  2  0
 24 12  1  0
 24 18  1  0
  1 25  1  0
  1 26  1  0
  1 27  1  0
  2 28  1  0
  2 29  1  0
  6 30  1  0
  6 31  1  0
 15 32  1  0
 15 33  1  0
 17 34  1  0
 19 35  1  0
 20 36  1  0
 22 37  1  0
 22 38  1  0
 22 39  1  0
 23 40  1  0
M  END
>  <UniqueID>  (8) 
8

>  <SMILES>  (8) 
CCOC(=O)CC(=O)OC(=O)n1c(C(N)=O)cc2ccc(C)cc21

>  <Energy>  (8) 
72.71184130370044

>  <Genealogy>  (8) 
CCOC(=O)CC(=O)OC(=O)n1c(C(N)=O)cc2ccc(C)cc21 (3D coordinates assigned)
CCOC(=O)CC(=O)OC(=O)n1c(C(N)=O)cc2ccc(C)cc21 (optimized conformer: 72.71184130370044 kcal/mol)

>  <smiles>  (8) 
CCOC(=O)CC(=O)OC(=O)n1c(C(N)=O)cc2ccc(C)cc21

>  <score_type>  (8) 
oracle

>  <origin>  (8) 
adg

>  <m_score__min__energy>  (8) 
-6.5199999999999996

>  <m_primary>  (8) 
energy

$$$$
8:0
     RDKit          3D

 60 61  0  0  0  0  0  0  0  0999 V2000
  140.1440  158.9770  131.5560 C   0  0  0  0  0  0  0  0  0  0  0  0
  138.9930  158.6040  132.1340 C   0  0  0  0  0  0  0  0  0  0  0  0
  137.6820  158.9940  131.5060 C   0  0  0  0  0  0  0  0  0  0  0  0
  139.0050  157.7210  133.3190 C   0  0  0  0  0  0  0  0  0  0  0  0
  138.7200  158.1930  134.4530 O   0  0  0  0  0  0  0  0  0  0  0  0
  139.3140  156.3600  133.1780 O   0  0  0  0  0  0  0  0  0  0  0  0
  140.6240  155.8260  133.3530 C   0  0  0  0  0  0  0  0  0  0  0  0
  141.3240  156.4950  134.5420 C   0  0  0  0  0  0  0  0  0  0  0  0
  142.7300  156.7870  134.2330 N   0  0  0  0  0  0  0  0  0  0  0  0
  143.8130  156.0480  134.9000 C   0  0  0  0  0  0  0  0  0  0  0  0
  144.5130  155.1410  133.9160 C   0  0  0  0  0  0  0  0  0  0  0  0
  143.9470  154.9160  132.8070 O   0  0  0  0  0  0  0  0  0  0  0  0
  145.8050  154.5500  134.1940 N   0  0  0  0  0  0  0  0  0  0  0  0
  146.3750  153.5830  133.2430 C   0  0  0  0  0  0  0  0  0  0  0  0
  146.5780  154.9300  135.3810 C   0  0  0  0  0  0  0  0  0  0  0  0
  143.0520  157.7140  133.1760 C   0  0  0  0  0  0  0  0  0  0  0  0
  142.7980  157.4230  131.9750 O   0  0  0  0  0  0  0  0  0  0  0  0
  143.7210  158.9460  133.4760 N   0  0  0  0  0  0  0  0  0  0  0  0
  143.1790  160.1230  133.8950 C   0  0  0  0  0  0  0  0  0  0  0  0
  141.7480  160.3770  134.1630 C   0  0  0  0  0  0  0  0  0  0  0  0
  141.0820  159.7650  135.2690 N   0  0  0  0  0  0  0  0  0  0  0  0
  141.0990  161.1410  133.3940 O   0  0  0  0  0  0  0  0  0  0  0  0
  144.1830  161.0760  134.0780 C   0  0  0  0  0  0  0  0  0  0  0  0
  145.3610  160.4400  133.7410 C   0  0  0  0  0  0  0  0  0  0  0  0
  146.6700  160.9140  133.7320 C   0  0  0  0  0  0  0  0  0  0  0  0
  147.6930  160.0260  133.3550 C   0  0  0  0  0  0  0  0  0  0  0  0
  147.4040  158.6830  132.9800 C   0  0  0  0  0  0  0  0  0  0  0  0
  148.4700  157.7700  132.5890 N   0  0  0  0  0  0  0  0  0  0  0  0
  148.3720  156.3310  132.8790 C   0  0  0  0  0  0  0  0  0  0  0  0
  149.6510  158.2590  131.8590 C   0  0  0  0  0  0  0  0  0  0  0  0
  146.0470  158.2500  133.0040 C   0  0  0  0  0  0  0  0  0  0  0  0
  145.0540  159.1600  133.3810 C   0  0  0  0  0  0  0  0  0  0  0  0
  141.1048  158.6945  132.0110 H   0  0  0  0  0  0  0  0  0  0  0  0
  140.1274  159.5655  130.6268 H   0  0  0  0  0  0  0  0  0  0  0  0
  136.9478  159.2124  132.2955 H   0  0  0  0  0  0  0  0  0  0  0  0
  137.8261  159.8882  130.8818 H   0  0  0  0  0  0  0  0  0  0  0  0
  137.3139  158.1665  130.8818 H   0  0  0  0  0  0  0  0  0  0  0  0
  140.5518  154.7440  133.5378 H   0  0  0  0  0  0  0  0  0  0  0  0
  141.2102  156.0177  132.4421 H   0  0  0  0  0  0  0  0  0  0  0  0
  140.8060  157.4355  134.7809 H   0  0  0  0  0  0  0  0  0  0  0  0
  141.2908  155.8063  135.3991 H   0  0  0  0  0  0  0  0  0  0  0  0
  144.5390  156.7634  135.3138 H   0  0  0  0  0  0  0  0  0  0  0  0
  143.3840  155.4363  135.7073 H   0  0  0  0  0  0  0  0  0  0  0  0
  146.8575  152.7645  133.7973 H   0  0  0  0  0  0  0  0  0  0  0  0
  145.5731  153.1747  132.6103 H   0  0  0  0  0  0  0  0  0  0  0  0
  147.1206  154.0868  132.6103 H   0  0  0  0  0  0  0  0  0  0  0  0
  146.0180  154.6547  136.2869 H   0  0  0  0  0  0  0  0  0  0  0  0
  147.5441  154.4041  135.3732 H   0  0  0  0  0  0  0  0  0  0  0  0
  146.7517  156.0162  135.3732 H   0  0  0  0  0  0  0  0  0  0  0  0
  140.5180  158.8940  135.1270 H   0  0  0  0  0  0  0  0  0  0  0  0
  144.0610  162.1147  134.4189 H   0  0  0  0  0  0  0  0  0  0  0  0
  146.8974  161.9532  134.0117 H   0  0  0  0  0  0  0  0  0  0  0  0
  148.7360  160.3753  133.3496 H   0  0  0  0  0  0  0  0  0  0  0  0
  148.3615  156.1763  133.9680 H   0  0  0  0  0  0  0  0  0  0  0  0
  147.4446  155.9314  132.4429 H   0  0  0  0  0  0  0  0  0  0  0  0
  149.2367  155.8093  132.4429 H   0  0  0  0  0  0  0  0  0  0  0  0
  150.4204  158.5776  132.5777 H   0  0  0  0  0  0  0  0  0  0  0  0
  150.0512  157.4526  131.2269 H   0  0  0  0  0  0  0  0  0  0  0  0
  149.3640  159.1123  131.2269 H   0  0  0  0  0  0  0  0  0  0  0  0
  145.7846  157.2173  132.7306 H   0  0  0  0  0  0  0  0  0  0  0  0
  1  2  2  0
  2  3  1  0
  2  4  1  0
  4  5  2  0
  4  6  1  0
  6  7  1  0
  7  8  1  0
  8  9  1  0
  9 10  1  0
 10 11  1  0
 11 12  2  0
 11 13  1  0
 13 14  1  0
 13 15  1  0
  9 16  1  0
 16 17  2  0
 16 18  1  0
 18 19  1  0
 19 20  1  0
 20 21  1  0
 20 22  2  0
 19 23  2  0
 23 24  1  0
 24 25  2  0
 25 26  1  0
 26 27  2  0
 27 28  1  0
 28 29  1  0
 28 30  1  0
 27 31  1  0
 31 32  2  0
 32 18  1  0
 32 24  1  0
  1 33  1  0
  1 34  1  0
  3 35  1  0
  3 36  1  0
  3 37  1  0
  7 38  1  0
  7 39  1  0
  8 40  1  0
  8 41  1  0
 10 42  1  0
 10 43  1  0
 14 44  1  0
 14 45  1  0
 14 46  1  0
 15 47  1  0
 15 48  1  0
 15 49  1  0
 21 50  1  0
 23 51  1  0
 25 52  1  0
 26 53  1  0
 29 54  1  0
 29 55  1  0
 29 56  1  0
 30 57  1  0
 30 58  1  0
 30 59  1  0
 31 60  1  0
M  CHG  1  21  -1
M  END
>  <UniqueID>  (9) 
9

>  <SMILES>  (9) 
C=C(C)C(=O)OCCN(CC(=O)N(C)C)C(=O)n1c(C([NH-])=O)cc2ccc(N(C)C)cc21

>  <Energy>  (9) 
91.4944119662802

>  <Genealogy>  (9) 
C=C(C)C(=O)OCCN(CC(=O)N(C)C)C(=O)n1c(C([NH-])=O)cc2ccc(N(C)C)cc21 (protonated)
C=C(C)C(=O)OCCN(CC(=O)N(C)C)C(=O)n1c(C([NH-])=O)cc2ccc(N(C)C)cc21 (3D coordinates assigned)
C=C(C)C(=O)OCCN(CC(=O)N(C)C)C(=O)n1c(C([NH-])=O)cc2ccc(N(C)C)cc21 (optimized conformer: 91.4944119662802 kcal/mol)

>  <smiles>  (9) 
C=C(C)C(=O)OCCN(CC(=O)N(C)C)C(=O)n1c(C(N)=O)cc2ccc(N(C)C)cc21

>  <score_type>  (9) 
oracle

>  <origin>  (9) 
adg

>  <m_score__min__energy>  (9) 
-7.4199999999999999

>  <m_primary>  (9) 
energy

$$$$
9:0
     RDKit          3D

 52 54  0  0  0  0  0  0  0  0999 V2000
  140.4430  159.2430  133.2630 C   0  0  0  0  0  0  0  0  0  0  0  0
  139.4670  158.2000  132.6790 C   0  0  0  0  0  0  0  0  0  0  0  0
  138.4150  157.8550  133.7460 C   0  0  0  0  0  0  0  0  0  0  0  0
  138.7510  158.7610  131.4360 C   0  0  0  0  0  0  0  0  0  0  0  0
  140.1560  156.9830  132.3530 O   0  0  0  0  0  0  0  0  0  0  0  0
  140.2090  155.8200  133.1340 C   0  0  0  0  0  0  0  0  0  0  0  0
  139.8370  154.7060  132.6730 O   0  0  0  0  0  0  0  0  0  0  0  0
  140.6750  155.9300  134.4480 O   0  0  0  0  0  0  0  0  0  0  0  0
  141.5120  155.0070  135.0900 C   0  0  0  0  0  0  0  0  0  0  0  0
  141.3720  154.7580  136.3170 O   0  0  0  0  0  0  0  0  0  0  0  0
  142.5150  154.3230  134.3210 N   0  0  0  0  0  0  0  0  0  0  0  0
  142.4460  153.0750  133.7780 C   0  0  0  0  0  0  0  0  0  0  0  0
  141.3380  152.1220  133.9590 C   0  0  0  0  0  0  0  0  0  0  0  0
  140.3090  152.0000  132.9800 N   0  0  0  0  0  0  0  0  0  0  0  0
  141.2600  151.4590  135.0280 O   0  0  0  0  0  0  0  0  0  0  0  0
  143.5160  152.8500  132.9160 C   0  0  0  0  0  0  0  0  0  0  0  0
  144.2670  154.0030  132.9630 C   0  0  0  0  0  0  0  0  0  0  0  0
  145.4470  154.3350  132.3030 C   0  0  0  0  0  0  0  0  0  0  0  0
  145.9960  155.6090  132.5360 C   0  0  0  0  0  0  0  0  0  0  0  0
  145.3640  156.5250  133.4190 C   0  0  0  0  0  0  0  0  0  0  0  0
  145.9450  157.8230  133.6650 N   0  0  0  0  0  0  0  0  0  0  0  0
  147.3930  157.9930  133.8440 C   0  0  0  0  0  0  0  0  0  0  0  0
  147.9350  159.0150  132.8280 C   0  0  0  0  0  0  0  0  0  0  0  0
  146.9720  160.0890  132.4850 N   0  0  0  0  0  0  0  0  0  0  0  0
  145.9420  160.2920  133.5140 C   0  0  0  0  0  0  0  0  0  0  0  0
  145.0940  159.0210  133.6890 C   0  0  0  0  0  0  0  0  0  0  0  0
  144.1740  156.1420  134.0780 C   0  0  0  0  0  0  0  0  0  0  0  0
  143.6400  154.8750  133.8150 C   0  0  0  0  0  0  0  0  0  0  0  0
  140.4067  159.2042  134.3617 H   0  0  0  0  0  0  0  0  0  0  0  0
  141.4648  159.0204  132.9218 H   0  0  0  0  0  0  0  0  0  0  0  0
  140.1532  160.2478  132.9218 H   0  0  0  0  0  0  0  0  0  0  0  0
  138.8480  157.9970  134.7472 H   0  0  0  0  0  0  0  0  0  0  0  0
  137.5423  158.5140  133.6271 H   0  0  0  0  0  0  0  0  0  0  0  0
  138.1021  156.8072  133.6271 H   0  0  0  0  0  0  0  0  0  0  0  0
  137.9218  159.4107  131.7526 H   0  0  0  0  0  0  0  0  0  0  0  0
  139.4639  159.3434  130.8339 H   0  0  0  0  0  0  0  0  0  0  0  0
  138.3560  157.9295  130.8339 H   0  0  0  0  0  0  0  0  0  0  0  0
  139.5590  151.2800  133.0950 H   0  0  0  0  0  0  0  0  0  0  0  0
  140.2510  152.6680  132.1790 H   0  0  0  0  0  0  0  0  0  0  0  0
  143.7181  151.9450  132.3243 H   0  0  0  0  0  0  0  0  0  0  0  0
  145.9348  153.6233  131.6206 H   0  0  0  0  0  0  0  0  0  0  0  0
  146.9271  155.8999  132.0277 H   0  0  0  0  0  0  0  0  0  0  0  0
  147.5938  158.3524  134.8641 H   0  0  0  0  0  0  0  0  0  0  0  0
  147.8918  157.0259  133.6830 H   0  0  0  0  0  0  0  0  0  0  0  0
  148.8366  159.4807  133.2525 H   0  0  0  0  0  0  0  0  0  0  0  0
  148.1423  158.4632  131.8993 H   0  0  0  0  0  0  0  0  0  0  0  0
  146.4910  159.8390  131.5880 H   0  0  0  0  0  0  0  0  0  0  0  0
  146.4289  160.5362  134.4697 H   0  0  0  0  0  0  0  0  0  0  0  0
  145.2848  161.1164  133.2003 H   0  0  0  0  0  0  0  0  0  0  0  0
  144.5651  159.0693  134.6523 H   0  0  0  0  0  0  0  0  0  0  0  0
  144.3725  158.9597  132.8609 H   0  0  0  0  0  0  0  0  0  0  0  0
  143.6777  156.8252  134.7829 H   0  0  0  0  0  0  0  0  0  0  0  0
  1  2  1  0
  2  3  1  0
  2  4  1  0
  2  5  1  0
  5  6  1  0
  6  7  2  0
  6  8  1  0
  8  9  1  0
  9 10  2  0
  9 11  1  0
 11 12  1  0
 12 13  1  0
 13 14  1  0
 13 15  2  0
 12 16  2  0
 16 17  1  0
 17 18  2  0
 18 19  1  0
 19 20  2  0
 20 21  1  0
 21 22  1  0
 22 23  1  0
 23 24  1  0
 24 25  1  0
 25 26  1  0
 20 27  1  0
 27 28  2  0
 28 11  1  0
 28 17  1  0
 26 21  1  0
  1 29  1  0
  1 30  1  0
  1 31  1  0
  3 32  1  0
  3 33  1  0
  3 34  1  0
  4 35  1  0
  4 36  1  0
  4 37  1  0
 14 38  1  0
 14 39  1  0
 16 40  1  0
 18 41  1  0
 19 42  1  0
 22 43  1  0
 22 44  1  0
 23 45  1  0
 23 46  1  0
 24 47  1  0
 25 48  1  0
 25 49  1  0
 26 50  1  0
 26 51  1  0
 27 52  1  0
M  END
>  <UniqueID>  (10) 
10

>  <SMILES>  (10) 
CC(C)(C)OC(=O)OC(=O)n1c(C(N)=O)cc2ccc(N3CCNCC3)cc21

>  <Energy>  (10) 
100.33797971818265

>  <Genealogy>  (10) 
CC(C)(C)OC(=O)OC(=O)n1c(C(N)=O)cc2ccc(N3CCNCC3)cc21 (3D coordinates assigned)
CC(C)(C)OC(=O)OC(=O)n1c(C(N)=O)cc2ccc(N3CCNCC3)cc21 (nonaromatic ring conformer: 100.33797971818265 kcal/mol)

>  <smiles>  (10) 
CC(C)(C)OC(=O)OC(=O)n1c(C(N)=O)cc2ccc(N3CCNCC3)cc21

>  <score_type>  (10) 
oracle

>  <origin>  (10) 
adg

>  <m_score__min__energy>  (10) 
-8.4000000000000004

>  <m_primary>  (10) 
energy

$$$$
10:0
     RDKit          3D

 37 38  0  0  0  0  0  0  0  0999 V2000
  143.1850  160.6370  133.3810 N   0  0  0  0  0  0  0  0  0  0  0  0
  144.5550  160.7630  133.7500 C   0  0  0  0  0  0  0  0  0  0  0  0
  144.9510  161.8240  134.2990 O   0  0  0  0  0  0  0  0  0  0  0  0
  145.4840  159.6350  133.5230 C   0  0  0  0  0  0  0  0  0  0  0  0
  146.8540  159.7960  133.3350 C   0  0  0  0  0  0  0  0  0  0  0  0
  147.3360  158.5340  133.0690 C   0  0  0  0  0  0  0  0  0  0  0  0
  148.6350  158.1080  132.8130 C   0  0  0  0  0  0  0  0  0  0  0  0
  148.8490  156.7370  132.5960 C   0  0  0  0  0  0  0  0  0  0  0  0
  147.7670  155.8150  132.6420 C   0  0  0  0  0  0  0  0  0  0  0  0
  147.9620  154.4020  132.4390 N   0  0  0  0  0  0  0  0  0  0  0  0
  149.2460  153.7090  132.5610 C   0  0  0  0  0  0  0  0  0  0  0  0
  149.0330  152.2200  132.8410 C   0  0  0  0  0  0  0  0  0  0  0  0
  147.7010  151.8650  132.5860 O   0  0  0  0  0  0  0  0  0  0  0  0
  146.4640  156.2910  132.9110 C   0  0  0  0  0  0  0  0  0  0  0  0
  146.2790  157.6640  133.1050 C   0  0  0  0  0  0  0  0  0  0  0  0
  145.1330  158.3240  133.3870 N   0  0  0  0  0  0  0  0  0  0  0  0
  143.8350  157.7360  133.5560 C   0  0  0  0  0  0  0  0  0  0  0  0
  142.8780  158.0980  132.8170 O   0  0  0  0  0  0  0  0  0  0  0  0
  143.6300  156.7820  134.5600 O   0  0  0  0  0  0  0  0  0  0  0  0
  143.4710  155.3900  134.3030 C   0  0  0  0  0  0  0  0  0  0  0  0
  144.8770  154.4550  134.9800 P   0  0  0  0  0  0  0  0  0  0  0  0
  145.8960  155.4030  135.5690 O   0  0  0  0  0  0  0  0  0  0  0  0
  145.5980  153.5560  133.7430 O   0  0  0  0  0  0  0  0  0  0  0  0
  144.3250  153.4050  136.1860 O   0  0  0  0  0  0  0  0  0  0  0  0
  142.9030  160.0710  132.5490 H   0  0  0  0  0  0  0  0  0  0  0  0
  147.4290  160.7322  133.3878 H   0  0  0  0  0  0  0  0  0  0  0  0
  149.4699  158.8235  132.7814 H   0  0  0  0  0  0  0  0  0  0  0  0
  149.8656  156.3719  132.3880 H   0  0  0  0  0  0  0  0  0  0  0  0
  147.1300  153.8160  132.1950 H   0  0  0  0  0  0  0  0  0  0  0  0
  149.8084  153.8230  131.6225 H   0  0  0  0  0  0  0  0  0  0  0  0
  149.8071  154.1494  133.3984 H   0  0  0  0  0  0  0  0  0  0  0  0
  149.6969  151.6297  132.1923 H   0  0  0  0  0  0  0  0  0  0  0  0
  149.2625  152.0171  133.8975 H   0  0  0  0  0  0  0  0  0  0  0  0
  147.1780  152.1340  133.3870 H   0  0  0  0  0  0  0  0  0  0  0  0
  145.6129  155.5964  132.9667 H   0  0  0  0  0  0  0  0  0  0  0  0
  142.5414  155.0384  134.7743 H   0  0  0  0  0  0  0  0  0  0  0  0
  143.4273  155.2308  133.2154 H   0  0  0  0  0  0  0  0  0  0  0  0
  1  2  1  0
  2  3  2  0
  2  4  1  0
  4  5  2  0
  5  6  1  0
  6  7  2  0
  7  8  1  0
  8  9  2  0
  9 10  1  0
 10 11  1  0
 11 12  1  0
 12 13  1  0
  9 14  1  0
 14 15  2  0
 15 16  1  0
 16 17  1  0
 17 18  2  0
 17 19  1  0
 19 20  1  0
 20 21  1  0
 21 22  2  0
 21 23  1  0
 21 24  1  0
 16  4  1  0
 15  6  1  0
  1 25  1  0
  5 26  1  0
  7 27  1  0
  8 28  1  0
 10 29  1  0
 11 30  1  0
 11 31  1  0
 12 32  1  0
 12 33  1  0
 13 34  1  0
 14 35  1  0
 20 36  1  0
 20 37  1  0
M  CHG  3   1  -1  23  -1  24  -1
M  END
>  <UniqueID>  (11) 
11

>  <SMILES>  (11) 
[NH-]C(=O)c1cc2ccc(NCCO)cc2n1C(=O)OCP(=O)([O-])[O-]

>  <Energy>  (11) 
68.51663761420345

>  <Genealogy>  (11) 
[NH-]C(=O)c1cc2ccc(NCCO)cc2n1C(=O)OCP(=O)([O-])[O-] (protonated)
[NH-]C(=O)c1cc2ccc(NCCO)cc2n1C(=O)OCP(=O)([O-])[O-] (3D coordinates assigned)
[NH-]C(=O)c1cc2ccc(NCCO)cc2n1C(=O)OCP(=O)([O-])[O-] (optimized conformer: 68.51663761420345 kcal/mol)

>  <smiles>  (11) 
NC(=O)c1cc2ccc(NCCO)cc2n1C(=O)OCP(=O)(O)O

>  <score_type>  (11) 
oracle

>  <origin>  (11) 
adg

>  <m_score__min__energy>  (11) 
-5.21

>  <m_primary>  (11) 
energy

$$$$
11:0
     RDKit          3D

 39 41  0  0  0  0  0  0  0  0999 V2000
  142.7910  153.7010  135.6660 C   0  0  0  0  0  0  0  0  0  0  0  0
  141.8580  154.4850  134.7920 C   0  0  0  0  0  0  0  0  0  0  0  0
  141.0570  153.8180  133.8300 C   0  0  0  0  0  0  0  0  0  0  0  0
  140.2000  154.5460  132.9850 C   0  0  0  0  0  0  0  0  0  0  0  0
  140.1790  155.9320  133.1140 C   0  0  0  0  0  0  0  0  0  0  0  0
  139.4390  156.8760  132.4380 C   0  0  0  0  0  0  0  0  0  0  0  0
  139.8250  158.1030  132.9780 C   0  0  0  0  0  0  0  0  0  0  0  0
  139.3300  159.4060  132.4870 C   0  0  0  0  0  0  0  0  0  0  0  0
  140.1080  160.5900  132.6400 N   0  0  0  0  0  0  0  0  0  0  0  0
  138.2210  159.4690  131.8920 O   0  0  0  0  0  0  0  0  0  0  0  0
  140.7590  157.9190  133.9530 N   0  0  0  0  0  0  0  0  0  0  0  0
  141.3550  158.9080  134.8050 C   0  0  0  0  0  0  0  0  0  0  0  0
  140.6210  159.7370  135.4090 O   0  0  0  0  0  0  0  0  0  0  0  0
  142.8470  159.0310  134.9060 C   0  0  0  0  0  0  0  0  0  0  0  0
  143.4030  159.7190  133.6890 C   0  0  0  0  0  0  0  0  0  0  0  0
  143.0080  160.8800  133.4010 O   0  0  0  0  0  0  0  0  0  0  0  0
  144.3980  159.1040  132.8600 N   0  0  0  0  0  0  0  0  0  0  0  0
  145.7860  158.9350  133.1810 C   0  0  0  0  0  0  0  0  0  0  0  0
  146.7200  159.9700  133.0100 C   0  0  0  0  0  0  0  0  0  0  0  0
  148.0540  159.7700  133.3670 C   0  0  0  0  0  0  0  0  0  0  0  0
  148.4410  158.5440  133.9100 C   0  0  0  0  0  0  0  0  0  0  0  0
  147.5200  157.5600  134.0960 N   0  0  0  0  0  0  0  0  0  0  0  0
  146.2140  157.7320  133.7540 C   0  0  0  0  0  0  0  0  0  0  0  0
  140.9680  156.5890  134.0210 C   0  0  0  0  0  0  0  0  0  0  0  0
  141.8220  155.8920  134.8830 C   0  0  0  0  0  0  0  0  0  0  0  0
  142.5564  153.8982  136.7225 H   0  0  0  0  0  0  0  0  0  0  0  0
  142.6727  152.6273  135.4583 H   0  0  0  0  0  0  0  0  0  0  0  0
  143.8283  154.0025  135.4583 H   0  0  0  0  0  0  0  0  0  0  0  0
  141.1064  152.7225  133.7441 H   0  0  0  0  0  0  0  0  0  0  0  0
  139.5659  154.0359  132.2450 H   0  0  0  0  0  0  0  0  0  0  0  0
  138.7007  156.7002  131.6418 H   0  0  0  0  0  0  0  0  0  0  0  0
  140.8230  160.6690  133.3980 H   0  0  0  0  0  0  0  0  0  0  0  0
  143.1020  159.6171  135.8013 H   0  0  0  0  0  0  0  0  0  0  0  0
  143.2830  158.0235  134.9752 H   0  0  0  0  0  0  0  0  0  0  0  0
  146.4002  160.9372  132.5951 H   0  0  0  0  0  0  0  0  0  0  0  0
  148.7937  160.5711  133.2218 H   0  0  0  0  0  0  0  0  0  0  0  0
  149.4915  158.3731  134.1879 H   0  0  0  0  0  0  0  0  0  0  0  0
  145.4912  156.9214  133.9288 H   0  0  0  0  0  0  0  0  0  0  0  0
  142.4484  156.4270  135.6119 H   0  0  0  0  0  0  0  0  0  0  0  0
  1  2  1  0
  2  3  2  0
  3  4  1  0
  4  5  2  0
  5  6  1  0
  6  7  2  0
  7  8  1  0
  8  9  1  0
  8 10  2  0
  7 11  1  0
 11 12  1  0
 12 13  2  0
 12 14  1  0
 14 15  1  0
 15 16  2  0
 15 17  1  0
 17 18  1  0
 18 19  2  0
 19 20  1  0
 20 21  2  0
 21 22  1  0
 22 23  2  0
 11 24  1  0
 24 25  2  0
 25  2  1  0
 24  5  1  0
 23 18  1  0
  1 26  1  0
  1 27  1  0
  1 28  1  0
  3 29  1  0
  4 30  1  0
  6 31  1  0
  9 32  1  0
 14 33  1  0
 14 34  1  0
 19 35  1  0
 20 36  1  0
 21 37  1  0
 23 38  1  0
 25 39  1  0
M  CHG  2   9  -1  17  -1
M  END
>  <UniqueID>  (12) 
12

>  <SMILES>  (12) 
Cc1ccc2cc(C([NH-])=O)n(C(=O)CC(=O)[N-]c3cccnc3)c2c1

>  <Energy>  (12) 
84.96915764132666

>  <Genealogy>  (12) 
Cc1ccc2cc(C([NH-])=O)n(C(=O)CC(=O)[N-]c3cccnc3)c2c1 (protonated)
Cc1ccc2cc(C([NH-])=O)n(C(=O)CC(=O)[N-]c3cccnc3)c2c1 (3D coordinates assigned)
Cc1ccc2cc(C([NH-])=O)n(C(=O)CC(=O)[N-]c3cccnc3)c2c1 (optimized conformer: 84.96915764132666 kcal/mol)

>  <smiles>  (12) 
Cc1ccc2cc(C(N)=O)n(C(=O)CC(=O)Nc3cccnc3)c2c1

>  <score_type>  (12) 
oracle

>  <origin>  (12) 
adg

>  <m_score__min__energy>  (12) 
-8.2100000000000009

>  <m_primary>  (12) 
energy

$$$$
12:0
     RDKit          3D

 44 45  0  0  0  0  0  0  0  0999 V2000
  140.6060  154.1960  133.2660 C   0  0  0  0  0  0  0  0  0  0  0  0
  139.4430  155.1410  132.9880 C   0  0  0  0  0  0  0  0  0  0  0  0
  139.8710  156.5760  133.1300 C   0  0  0  0  0  0  0  0  0  0  0  0
  138.9170  157.6220  133.0430 C   0  0  0  0  0  0  0  0  0  0  0  0
  139.3130  158.9640  133.1790 C   0  0  0  0  0  0  0  0  0  0  0  0
  140.6650  159.2290  133.3780 C   0  0  0  0  0  0  0  0  0  0  0  0
  141.3200  160.4270  133.5610 C   0  0  0  0  0  0  0  0  0  0  0  0
  142.6650  160.0950  133.7100 C   0  0  0  0  0  0  0  0  0  0  0  0
  143.7440  161.0980  133.8510 C   0  0  0  0  0  0  0  0  0  0  0  0
  145.0120  160.7460  134.4010 N   0  0  0  0  0  0  0  0  0  0  0  0
  143.5540  162.2770  133.4500 O   0  0  0  0  0  0  0  0  0  0  0  0
  142.8320  158.7440  133.6280 N   0  0  0  0  0  0  0  0  0  0  0  0
  144.0430  157.9880  133.7570 C   0  0  0  0  0  0  0  0  0  0  0  0
  144.1570  157.1360  134.6800 O   0  0  0  0  0  0  0  0  0  0  0  0
  145.0810  158.1890  132.8410 O   0  0  0  0  0  0  0  0  0  0  0  0
  146.3830  157.6370  133.0130 C   0  0  0  0  0  0  0  0  0  0  0  0
  147.2110  158.5550  133.7220 O   0  0  0  0  0  0  0  0  0  0  0  0
  147.7350  159.7110  133.1330 C   0  0  0  0  0  0  0  0  0  0  0  0
  147.5080  160.8420  133.6480 O   0  0  0  0  0  0  0  0  0  0  0  0
  148.5330  159.6080  131.9390 N   0  0  0  0  0  0  0  0  0  0  0  0
  149.6450  158.6560  131.9050 C   0  0  0  0  0  0  0  0  0  0  0  0
  148.2330  160.4460  130.7700 C   0  0  0  0  0  0  0  0  0  0  0  0
  149.4950  161.0100  130.2000 C   0  0  0  0  0  0  0  0  0  0  0  0
  149.7730  162.2280  130.3520 O   0  0  0  0  0  0  0  0  0  0  0  0
  150.3770  160.1820  129.5160 O   0  0  0  0  0  0  0  0  0  0  0  0
  141.6010  158.2300  133.4260 C   0  0  0  0  0  0  0  0  0  0  0  0
  141.2360  156.8870  133.3170 C   0  0  0  0  0  0  0  0  0  0  0  0
  140.7390  154.0879  134.3526 H   0  0  0  0  0  0  0  0  0  0  0  0
  140.3928  153.2120  132.8230 H   0  0  0  0  0  0  0  0  0  0  0  0
  141.5256  154.6060  132.8230 H   0  0  0  0  0  0  0  0  0  0  0  0
  139.0798  154.9733  131.9633 H   0  0  0  0  0  0  0  0  0  0  0  0
  138.6443  154.9389  133.7169 H   0  0  0  0  0  0  0  0  0  0  0  0
  137.8582  157.3810  132.8676 H   0  0  0  0  0  0  0  0  0  0  0  0
  138.5769  159.7799  133.1297 H   0  0  0  0  0  0  0  0  0  0  0  0
  140.8753  161.4328  133.5845 H   0  0  0  0  0  0  0  0  0  0  0  0
  145.5710  159.9600  134.0030 H   0  0  0  0  0  0  0  0  0  0  0  0
  146.3087  156.6986  133.5822 H   0  0  0  0  0  0  0  0  0  0  0  0
  146.8253  157.4397  132.0253 H   0  0  0  0  0  0  0  0  0  0  0  0
  149.9418  158.4020  132.9333 H   0  0  0  0  0  0  0  0  0  0  0  0
  149.3302  157.7432  131.3781 H   0  0  0  0  0  0  0  0  0  0  0  0
  150.4984  159.1077  131.3781 H   0  0  0  0  0  0  0  0  0  0  0  0
  147.7300  159.8359  130.0053 H   0  0  0  0  0  0  0  0  0  0  0  0
  147.5788  161.2739  131.0809 H   0  0  0  0  0  0  0  0  0  0  0  0
  141.9927  156.0907  133.3753 H   0  0  0  0  0  0  0  0  0  0  0  0
  1  2  1  0
  2  3  1  0
  3  4  2  0
  4  5  1  0
  5  6  2  0
  6  7  1  0
  7  8  2  0
  8  9  1  0
  9 10  1  0
  9 11  2  0
  8 12  1  0
 12 13  1  0
 13 14  2  0
 13 15  1  0
 15 16  1  0
 16 17  1  0
 17 18  1  0
 18 19  2  0
 18 20  1  0
 20 21  1  0
 20 22  1  0
 22 23  1  0
 23 24  2  0
 23 25  1  0
 12 26  1  0
 26 27  2  0
 27  3  1  0
 26  6  1  0
  1 28  1  0
  1 29  1  0
  1 30  1  0
  2 31  1  0
  2 32  1  0
  4 33  1  0
  5 34  1  0
  7 35  1  0
 10 36  1  0
 16 37  1  0
 16 38  1  0
 21 39  1  0
 21 40  1  0
 21 41  1  0
 22 42  1  0
 22 43  1  0
 27 44  1  0
M  CHG  2  10  -1  25  -1
M  END
>  <UniqueID>  (13) 
13

>  <SMILES>  (13) 
CCc1ccc2cc(C([NH-])=O)n(C(=O)OCOC(=O)N(C)CC(=O)[O-])c2c1

>  <Energy>  (13) 
71.77631716548699

>  <Genealogy>  (13) 
CCc1ccc2cc(C([NH-])=O)n(C(=O)OCOC(=O)N(C)CC(=O)[O-])c2c1 (protonated)
CCc1ccc2cc(C([NH-])=O)n(C(=O)OCOC(=O)N(C)CC(=O)[O-])c2c1 (3D coordinates assigned)
CCc1ccc2cc(C([NH-])=O)n(C(=O)OCOC(=O)N(C)CC(=O)[O-])c2c1 (optimized conformer: 71.77631716548699 kcal/mol)

>  <smiles>  (13) 
CCc1ccc2cc(C(N)=O)n(C(=O)OCOC(=O)N(C)CC(=O)O)c2c1

>  <score_type>  (13) 
oracle

>  <origin>  (13) 
adg

>  <m_score__min__energy>  (13) 
-6.6200000000000001

>  <m_primary>  (13) 
energy

$$$$
13:0
     RDKit          3D

 31 32  0  0  0  0  0  0  0  0999 V2000
  149.8690  157.7630  132.2140 N   0  0  0  0  0  0  0  0  0  0  0  0
  149.2550  159.0490  132.1980 C   0  0  0  0  0  0  0  0  0  0  0  0
  149.9350  160.0490  131.8460 O   0  0  0  0  0  0  0  0  0  0  0  0
  147.8540  159.2340  132.6340 C   0  0  0  0  0  0  0  0  0  0  0  0
  147.3100  160.4800  132.9380 C   0  0  0  0  0  0  0  0  0  0  0  0
  146.0250  160.2250  133.3550 C   0  0  0  0  0  0  0  0  0  0  0  0
  145.0310  161.1060  133.7650 C   0  0  0  0  0  0  0  0  0  0  0  0
  143.7800  160.5720  134.1150 C   0  0  0  0  0  0  0  0  0  0  0  0
  143.5380  159.1790  134.0410 C   0  0  0  0  0  0  0  0  0  0  0  0
  142.2370  158.6770  134.4050 N   0  0  0  0  0  0  0  0  0  0  0  0
  141.0040  158.9580  133.6690 C   0  0  0  0  0  0  0  0  0  0  0  0
  139.8790  158.1240  134.1930 C   0  0  0  0  0  0  0  0  0  0  0  0
  138.7340  158.2330  133.6750 O   0  0  0  0  0  0  0  0  0  0  0  0
  140.1170  157.2370  135.2510 O   0  0  0  0  0  0  0  0  0  0  0  0
  140.2940  157.6130  136.5880 C   0  0  0  0  0  0  0  0  0  0  0  0
  139.8700  156.8970  137.5330 O   0  0  0  0  0  0  0  0  0  0  0  0
  140.9480  158.8030  136.8760 O   0  0  0  0  0  0  0  0  0  0  0  0
  144.5750  158.3150  133.6080 C   0  0  0  0  0  0  0  0  0  0  0  0
  145.8220  158.8710  133.2900 C   0  0  0  0  0  0  0  0  0  0  0  0
  146.9400  158.2460  132.8500 N   0  0  0  0  0  0  0  0  0  0  0  0
  147.1050  156.8420  132.5870 C   0  0  0  0  0  0  0  0  0  0  0  0
  147.8000  156.1180  133.3470 O   0  0  0  0  0  0  0  0  0  0  0  0
  149.6980  157.0970  133.0000 H   0  0  0  0  0  0  0  0  0  0  0  0
  147.8038  161.4599  132.8608 H   0  0  0  0  0  0  0  0  0  0  0  0
  145.2186  162.1888  133.8139 H   0  0  0  0  0  0  0  0  0  0  0  0
  142.9775  161.2451  134.4511 H   0  0  0  0  0  0  0  0  0  0  0  0
  142.1600  158.0490  135.2380 H   0  0  0  0  0  0  0  0  0  0  0  0
  140.7492  160.0220  133.7827 H   0  0  0  0  0  0  0  0  0  0  0  0
  141.1609  158.7167  132.6073 H   0  0  0  0  0  0  0  0  0  0  0  0
  144.4049  157.2315  133.5233 H   0  0  0  0  0  0  0  0  0  0  0  0
  146.6168  156.3940  131.7089 H   0  0  0  0  0  0  0  0  0  0  0  0
  1  2  1  0
  2  3  2  0
  2  4  1  0
  4  5  2  0
  5  6  1  0
  6  7  2  0
  7  8  1  0
  8  9  2  0
  9 10  1  0
 10 11  1  0
 11 12  1  0
 12 13  2  0
 12 14  1  0
 14 15  1  0
 15 16  2  0
 15 17  1  0
  9 18  1  0
 18 19  2  0
 19 20  1  0
 20 21  1  0
 21 22  2  0
 20  4  1  0
 19  6  1  0
  1 23  1  0
  5 24  1  0
  7 25  1  0
  8 26  1  0
 10 27  1  0
 11 28  1  0
 11 29  1  0
 18 30  1  0
 21 31  1  0
M  CHG  2   1  -1  17  -1
M  END
>  <UniqueID>  (14) 
14

>  <SMILES>  (14) 
[NH-]C(=O)c1cc2ccc(NCC(=O)OC(=O)[O-])cc2n1C=O

>  <Energy>  (14) 
68.78208699680216

>  <Genealogy>  (14) 
[NH-]C(=O)c1cc2ccc(NCC(=O)OC(=O)[O-])cc2n1C=O (protonated)
[NH-]C(=O)c1cc2ccc(NCC(=O)OC(=O)[O-])cc2n1C=O (3D coordinates assigned)
[NH-]C(=O)c1cc2ccc(NCC(=O)OC(=O)[O-])cc2n1C=O (optimized conformer: 68.78208699680216 kcal/mol)

>  <smiles>  (14) 
NC(=O)c1cc2ccc(NCC(=O)OC(=O)O)cc2n1C=O

>  <score_type>  (14) 
oracle

>  <origin>  (14) 
adg

>  <m_score__min__energy>  (14) 
-6.0599999999999996

>  <m_primary>  (14) 
energy

$$$$
14:0
     RDKit          3D

 32 33  0  0  0  0  0  0  0  0999 V2000
  140.6330  159.6330  134.4290 N   0  0  0  0  0  0  0  0  0  0  0  0
  141.8090  158.8350  134.3260 C   0  0  0  0  0  0  0  0  0  0  0  0
  142.9290  159.3530  134.5830 O   0  0  0  0  0  0  0  0  0  0  0  0
  141.7290  157.4010  133.9800 C   0  0  0  0  0  0  0  0  0  0  0  0
  142.7930  156.5150  134.1330 C   0  0  0  0  0  0  0  0  0  0  0  0
  142.2930  155.2800  133.7940 C   0  0  0  0  0  0  0  0  0  0  0  0
  142.9200  154.0390  133.7640 C   0  0  0  0  0  0  0  0  0  0  0  0
  142.1650  152.9290  133.3510 C   0  0  0  0  0  0  0  0  0  0  0  0
  140.8100  153.0800  132.9580 C   0  0  0  0  0  0  0  0  0  0  0  0
  140.0390  151.9310  132.5510 N   0  0  0  0  0  0  0  0  0  0  0  0
  140.9330  150.8860  132.0350 C   0  0  0  0  0  0  0  0  0  0  0  0
  141.1510  149.8250  133.0710 C   0  0  0  0  0  0  0  0  0  0  0  0
  141.8570  148.8170  132.8060 O   0  0  0  0  0  0  0  0  0  0  0  0
  140.6180  149.9770  134.3450 O   0  0  0  0  0  0  0  0  0  0  0  0
  140.2060  154.3590  133.0110 C   0  0  0  0  0  0  0  0  0  0  0  0
  140.9770  155.4410  133.4470 C   0  0  0  0  0  0  0  0  0  0  0  0
  140.6150  156.7390  133.5530 N   0  0  0  0  0  0  0  0  0  0  0  0
  139.3390  157.2950  133.2010 C   0  0  0  0  0  0  0  0  0  0  0  0
  138.4790  157.5050  134.1000 O   0  0  0  0  0  0  0  0  0  0  0  0
  139.0730  157.6210  131.8630 O   0  0  0  0  0  0  0  0  0  0  0  0
  138.9820  158.9220  131.3560 C   0  0  0  0  0  0  0  0  0  0  0  0
  138.7950  159.9110  132.1130 O   0  0  0  0  0  0  0  0  0  0  0  0
  139.1000  159.1250  129.9880 O   0  0  0  0  0  0  0  0  0  0  0  0
  139.7350  159.3260  133.9900 H   0  0  0  0  0  0  0  0  0  0  0  0
  143.8170  156.7532  134.4567 H   0  0  0  0  0  0  0  0  0  0  0  0
  143.9752  153.9301  134.0549 H   0  0  0  0  0  0  0  0  0  0  0  0
  142.6291  151.9319  133.3320 H   0  0  0  0  0  0  0  0  0  0  0  0
  139.3540  152.2100  131.8100 H   0  0  0  0  0  0  0  0  0  0  0  0
  139.4990  151.5620  133.3690 H   0  0  0  0  0  0  0  0  0  0  0  0
  140.4812  150.4318  131.1408 H   0  0  0  0  0  0  0  0  0  0  0  0
  141.9021  151.3399  131.7804 H   0  0  0  0  0  0  0  0  0  0  0  0
  139.1554  154.4984  132.7163 H   0  0  0  0  0  0  0  0  0  0  0  0
  1  2  1  0
  2  3  2  0
  2  4  1  0
  4  5  2  0
  5  6  1  0
  6  7  2  0
  7  8  1  0
  8  9  2  0
  9 10  1  0
 10 11  1  0
 11 12  1  0
 12 13  2  0
 12 14  1  0
  9 15  1  0
 15 16  2  0
 16 17  1  0
 17 18  1  0
 18 19  2  0
 18 20  1  0
 20 21  1  0
 21 22  2  0
 21 23  1  0
 17  4  1  0
 16  6  1  0
  1 24  1  0
  5 25  1  0
  7 26  1  0
  8 27  1  0
 10 28  1  0
 10 29  1  0
 11 30  1  0
 11 31  1  0
 15 32  1  0
M  CHG  4   1  -1  10   1  14  -1  23  -1
M  END
>  <UniqueID>  (15) 
15

>  <SMILES>  (15) 
[NH-]C(=O)c1cc2ccc([NH2+]CC(=O)[O-])cc2n1C(=O)OC(=O)[O-]

>  <Energy>  (15) 
72.41870012171889

>  <Genealogy>  (15) 
[NH-]C(=O)c1cc2ccc([NH2+]CC(=O)[O-])cc2n1C(=O)OC(=O)[O-] (protonated)
[NH-]C(=O)c1cc2ccc([NH2+]CC(=O)[O-])cc2n1C(=O)OC(=O)[O-] (3D coordinates assigned)
[NH-]C(=O)c1cc2ccc([NH2+]CC(=O)[O-])cc2n1C(=O)OC(=O)[O-] (optimized conformer: 72.41870012171889 kcal/mol)

>  <smiles>  (15) 
NC(=O)c1cc2ccc(NCC(=O)O)cc2n1C(=O)OC(=O)O

>  <score_type>  (15) 
oracle

>  <origin>  (15) 
adg

>  <m_score__min__energy>  (15) 
-5.9699999999999998

>  <m_primary>  (15) 
energy

$$$$
15:0
     RDKit          3D

 42 43  0  0  0  0  0  0  0  0999 V2000
  139.0080  159.3170  130.7300 C   0  0  0  0  0  0  0  0  0  0  0  0
  139.4090  158.8290  131.7560 C   0  0  0  0  0  0  0  0  0  0  0  0
  139.8890  158.2450  132.9810 C   0  0  0  0  0  0  0  0  0  0  0  0
  139.8430  158.9890  134.1830 C   0  0  0  0  0  0  0  0  0  0  0  0
  140.2980  158.4240  135.3870 C   0  0  0  0  0  0  0  0  0  0  0  0
  140.7970  157.1240  135.3490 C   0  0  0  0  0  0  0  0  0  0  0  0
  141.2710  156.3270  136.3680 C   0  0  0  0  0  0  0  0  0  0  0  0
  141.6100  155.1180  135.7620 C   0  0  0  0  0  0  0  0  0  0  0  0
  142.1640  153.9580  136.4920 C   0  0  0  0  0  0  0  0  0  0  0  0
  141.9690  152.6390  135.9840 N   0  0  0  0  0  0  0  0  0  0  0  0
  142.8050  154.1160  137.5640 O   0  0  0  0  0  0  0  0  0  0  0  0
  141.3740  155.1740  134.4210 N   0  0  0  0  0  0  0  0  0  0  0  0
  141.5590  154.1190  133.4610 C   0  0  0  0  0  0  0  0  0  0  0  0
  140.6190  153.8710  132.6550 O   0  0  0  0  0  0  0  0  0  0  0  0
  142.8360  153.4330  133.3240 N   0  0  1  0  0  0  0  0  0  0  0  0
  142.7350  152.1210  132.6390 C   0  0  0  0  0  0  0  0  0  0  0  0
  141.9200  151.1390  133.3790 C   0  0  0  0  0  0  0  0  0  0  0  0
  141.2820  150.3660  133.9580 N   0  0  0  0  0  0  0  0  0  0  0  0
  143.8180  154.2690  132.6510 C   0  0  0  0  0  0  0  0  0  0  0  0
  144.0100  154.1180  131.4090 O   0  0  0  0  0  0  0  0  0  0  0  0
  144.6210  155.2390  133.3700 N   0  0  0  0  0  0  0  0  0  0  0  0
  144.1180  156.6130  133.4900 C   0  0  0  0  0  0  0  0  0  0  0  0
  145.9080  154.8950  133.9930 C   0  0  0  0  0  0  0  0  0  0  0  0
  145.7170  153.8690  135.0660 C   0  0  0  0  0  0  0  0  0  0  0  0
  146.5880  153.7190  135.9620 O   0  0  0  0  0  0  0  0  0  0  0  0
  144.5880  153.0590  135.0630 O   0  0  0  0  0  0  0  0  0  0  0  0
  140.8610  156.4010  134.1860 C   0  0  0  0  0  0  0  0  0  0  0  0
  140.3960  156.9300  132.9770 C   0  0  0  0  0  0  0  0  0  0  0  0
  138.6419  159.7625  129.7933 H   0  0  0  0  0  0  0  0  0  0  0  0
  139.4488  160.0159  134.1756 H   0  0  0  0  0  0  0  0  0  0  0  0
  140.2612  158.9904  136.3292 H   0  0  0  0  0  0  0  0  0  0  0  0
  141.3625  156.5887  137.4325 H   0  0  0  0  0  0  0  0  0  0  0  0
  142.5440  152.2800  135.1900 H   0  0  0  0  0  0  0  0  0  0  0  0
  143.1510  153.2510  134.2980 H   0  0  0  0  0  0  0  0  0  0  0  0
  142.2805  152.2775  131.6496 H   0  0  0  0  0  0  0  0  0  0  0  0
  143.7533  151.7115  132.5665 H   0  0  0  0  0  0  0  0  0  0  0  0
  144.0215  156.8766  134.5536 H   0  0  0  0  0  0  0  0  0  0  0  0
  144.8212  157.3047  133.0032 H   0  0  0  0  0  0  0  0  0  0  0  0
  143.1344  156.6872  133.0032 H   0  0  0  0  0  0  0  0  0  0  0  0
  146.5853  154.4931  133.2251 H   0  0  0  0  0  0  0  0  0  0  0  0
  146.3378  155.8023  134.4426 H   0  0  0  0  0  0  0  0  0  0  0  0
  140.4253  156.3371  132.0509 H   0  0  0  0  0  0  0  0  0  0  0  0
  1  2  3  0
  2  3  1  0
  3  4  2  0
  4  5  1  0
  5  6  2  0
  6  7  1  0
  7  8  2  0
  8  9  1  0
  9 10  1  0
  9 11  2  0
  8 12  1  0
 12 13  1  0
 13 14  2  0
 13 15  1  0
 15 16  1  0
 16 17  1  0
 17 18  3  0
 15 19  1  0
 19 20  2  0
 19 21  1  0
 21 22  1  0
 21 23  1  0
 23 24  1  0
 24 25  2  0
 24 26  1  0
 12 27  1  0
 27 28  2  0
 28  3  1  0
 27  6  1  0
  1 29  1  0
  4 30  1  0
  5 31  1  0
  7 32  1  0
 10 33  1  0
 15 34  1  1
 16 35  1  0
 16 36  1  0
 22 37  1  0
 22 38  1  0
 22 39  1  0
 23 40  1  0
 23 41  1  0
 28 42  1  0
M  CHG  3  10  -1  15   1  26  -1
M  END
>  <UniqueID>  (16) 
16

>  <SMILES>  (16) 
C#Cc1ccc2cc(C([NH-])=O)n(C(=O)[NH+](CC#N)C(=O)N(C)CC(=O)[O-])c2c1

>  <Energy>  (16) 
84.99546812207072

>  <Genealogy>  (16) 
C#Cc1ccc2cc(C([NH-])=O)n(C(=O)[NH+](CC#N)C(=O)N(C)CC(=O)[O-])c2c1 (protonated)
C#Cc1ccc2cc(C([NH-])=O)n(C(=O)[NH+](CC#N)C(=O)N(C)CC(=O)[O-])c2c1 (3D coordinates assigned)
C#Cc1ccc2cc(C([NH-])=O)n(C(=O)[NH+](CC#N)C(=O)N(C)CC(=O)[O-])c2c1 (optimized conformer: 84.99546812207072 kcal/mol)

>  <smiles>  (16) 
C#Cc1ccc2cc(C(N)=O)n(C(=O)N(CC#N)C(=O)N(C)CC(=O)O)c2c1

>  <score_type>  (16) 
oracle

>  <origin>  (16) 
adg

>  <m_score__min__energy>  (16) 
-6.8600000000000003

>  <m_primary>  (16) 
energy

$$$$
16:0
     RDKit          3D

 33 35  0  0  0  0  0  0  0  0999 V2000
  141.3800  160.3740  134.0060 N   0  0  0  0  0  0  0  0  0  0  0  0
  142.3490  159.5630  134.6700 C   0  0  0  0  0  0  0  0  0  0  0  0
  142.0580  159.0360  135.7780 O   0  0  0  0  0  0  0  0  0  0  0  0
  143.7050  159.3820  134.1170 C   0  0  0  0  0  0  0  0  0  0  0  0
  144.2600  158.1360  133.8430 C   0  0  0  0  0  0  0  0  0  0  0  0
  145.5400  158.3960  133.4090 C   0  0  0  0  0  0  0  0  0  0  0  0
  146.5340  157.5200  132.9880 C   0  0  0  0  0  0  0  0  0  0  0  0
  147.7520  158.0660  132.5530 C   0  0  0  0  0  0  0  0  0  0  0  0
  147.9550  159.4730  132.5350 C   0  0  0  0  0  0  0  0  0  0  0  0
  149.2580  160.0850  132.0540 C   0  0  1  0  0  0  0  0  0  0  0  0
  149.9630  159.3030  130.9450 C   0  0  0  0  0  0  0  0  0  0  0  0
  149.8130  160.5030  130.0110 C   0  0  1  0  0  0  0  0  0  0  0  0
  148.9640  160.2310  128.9300 O   0  0  0  0  0  0  0  0  0  0  0  0
  149.0930  161.2790  131.1110 C   0  0  0  0  0  0  0  0  0  0  0  0
  146.9160  160.3270  132.9700 C   0  0  0  0  0  0  0  0  0  0  0  0
  145.7200  159.7560  133.4190 C   0  0  0  0  0  0  0  0  0  0  0  0
  144.5990  160.3780  133.8500 N   0  0  0  0  0  0  0  0  0  0  0  0
  144.3660  161.7960  133.8960 C   0  0  0  0  0  0  0  0  0  0  0  0
  143.3290  162.2880  133.3760 O   0  0  0  0  0  0  0  0  0  0  0  0
  145.2810  162.6410  134.5130 O   0  0  0  0  0  0  0  0  0  0  0  0
  141.6410  160.9590  133.1810 H   0  0  0  0  0  0  0  0  0  0  0  0
  140.4140  160.4600  134.3930 H   0  0  0  0  0  0  0  0  0  0  0  0
  143.7785  157.1528  133.9503 H   0  0  0  0  0  0  0  0  0  0  0  0
  146.3711  156.4322  132.9955 H   0  0  0  0  0  0  0  0  0  0  0  0
  148.5596  157.3966  132.2218 H   0  0  0  0  0  0  0  0  0  0  0  0
  149.7412  160.2136  133.0338 H   0  0  0  0  0  0  0  0  0  0  0  0
  149.4214  158.4047  130.6138 H   0  0  0  0  0  0  0  0  0  0  0  0
  150.9508  158.8520  131.1208 H   0  0  0  0  0  0  0  0  0  0  0  0
  150.6941  160.9269  129.5069 H   0  0  0  0  0  0  0  0  0  0  0  0
  148.1590  160.7940  129.0690 H   0  0  0  0  0  0  0  0  0  0  0  0
  148.0470  161.5259  130.8765 H   0  0  0  0  0  0  0  0  0  0  0  0
  149.4420  162.2786  131.4093 H   0  0  0  0  0  0  0  0  0  0  0  0
  147.0451  161.4193  132.9558 H   0  0  0  0  0  0  0  0  0  0  0  0
  1  2  1  0
  2  3  2  0
  2  4  1  0
  4  5  2  0
  5  6  1  0
  6  7  2  0
  7  8  1  0
  8  9  2  0
  9 10  1  0
 10 11  1  0
 11 12  1  0
 12 13  1  0
 12 14  1  0
  9 15  1  0
 15 16  2  0
 16 17  1  0
 17 18  1  0
 18 19  2  0
 18 20  1  0
 17  4  1  0
 16  6  1  0
 14 10  1  0
  1 21  1  0
  1 22  1  0
  5 23  1  0
  7 24  1  0
  8 25  1  0
 10 26  1  1
 11 27  1  0
 11 28  1  0
 12 29  1  6
 13 30  1  0
 14 31  1  0
 14 32  1  0
 15 33  1  0
M  CHG  1  20  -1
M  END
>  <UniqueID>  (17) 
17

>  <SMILES>  (17) 
NC(=O)c1cc2ccc(C3CC(O)C3)cc2n1C(=O)[O-]

>  <Energy>  (17) 
136.4831138288904

>  <Genealogy>  (17) 
NC(=O)c1cc2ccc(C3CC(O)C3)cc2n1C(=O)[O-] (protonated)
NC(=O)c1cc2ccc(C3CC(O)C3)cc2n1C(=O)[O-] (3D coordinates assigned)
NC(=O)c1cc2ccc(C3CC(O)C3)cc2n1C(=O)[O-] (nonaromatic ring conformer: 136.4831138288904 kcal/mol)

>  <smiles>  (17) 
NC(=O)c1cc2ccc(C3CC(O)C3)cc2n1C(=O)O

>  <score_type>  (17) 
oracle

>  <origin>  (17) 
adg

>  <m_score__min__energy>  (17) 
-7.3099999999999996

>  <m_primary>  (17) 
energy

$$$$
17:0
     RDKit          3D

 45 46  0  0  0  0  0  0  0  0999 V2000
  141.9200  155.6910  132.5300 H   0  0  0  0  0  0  0  0  0  0  0  0
  141.6890  156.5990  132.9880 N   0  0  0  0  0  0  0  0  0  0  0  0
  142.5490  157.1580  133.9760 C   0  0  0  0  0  0  0  0  0  0  0  0
  142.1760  157.1760  135.1800 O   0  0  0  0  0  0  0  0  0  0  0  0
  143.8850  157.6720  133.6150 C   0  0  0  0  0  0  0  0  0  0  0  0
  144.2440  159.0170  133.7000 C   0  0  0  0  0  0  0  0  0  0  0  0
  143.6010  159.8628  133.9848 H   0  0  0  0  0  0  0  0  0  0  0  0
  145.5760  159.0600  133.3510 C   0  0  0  0  0  0  0  0  0  0  0  0
  146.4460  160.1430  133.2590 C   0  0  0  0  0  0  0  0  0  0  0  0
  146.1093  161.1629  133.4964 H   0  0  0  0  0  0  0  0  0  0  0  0
  147.7690  159.8920  132.8530 C   0  0  0  0  0  0  0  0  0  0  0  0
  148.4855  160.7239  132.7848 H   0  0  0  0  0  0  0  0  0  0  0  0
  148.1870  158.5770  132.5310 C   0  0  0  0  0  0  0  0  0  0  0  0
  149.6080  158.3170  132.1290 C   0  0  0  0  0  0  0  0  0  0  0  0
  150.2290  158.2034  133.0298 H   0  0  0  0  0  0  0  0  0  0  0  0
  149.6571  157.3950  131.5311 H   0  0  0  0  0  0  0  0  0  0  0  0
  149.9804  159.1619  131.5311 H   0  0  0  0  0  0  0  0  0  0  0  0
  147.2810  157.5010  132.6510 C   0  0  0  0  0  0  0  0  0  0  0  0
  147.5931  156.4716  132.4211 H   0  0  0  0  0  0  0  0  0  0  0  0
  145.9760  157.7790  133.0700 C   0  0  0  0  0  0  0  0  0  0  0  0
  144.9490  156.9190  133.2240 N   0  0  0  0  0  0  0  0  0  0  0  0
  144.9810  155.5160  132.9200 C   0  0  0  0  0  0  0  0  0  0  0  0
  146.0220  154.8530  133.1900 O   0  0  0  0  0  0  0  0  0  0  0  0
  143.9040  154.9190  132.1650 N   0  0  2  0  0  0  0  0  0  0  0  0
  143.1300  155.6170  132.0660 H   0  0  0  0  0  0  0  0  0  0  0  0
  143.3750  153.7560  132.8380 C   0  0  0  0  0  0  0  0  0  0  0  0
  143.9150  152.6240  132.6840 O   0  0  0  0  0  0  0  0  0  0  0  0
  142.2740  153.8970  133.6900 O   0  0  0  0  0  0  0  0  0  0  0  0
  142.2620  153.3910  135.0200 C   0  0  0  0  0  0  0  0  0  0  0  0
  141.7300  154.0951  135.6766 H   0  0  0  0  0  0  0  0  0  0  0  0
  143.2949  153.2693  135.3782 H   0  0  0  0  0  0  0  0  0  0  0  0
  141.5630  152.0630  135.0370 C   0  0  0  0  0  0  0  0  0  0  0  0
  141.2190  151.5680  136.1890 N   0  0  0  0  0  0  0  0  0  0  0  0
  140.6080  150.3430  136.3340 O   0  0  0  0  0  0  0  0  0  0  0  0
  139.8750  150.0430  137.5080 C   0  0  0  0  0  0  0  0  0  0  0  0
  140.4809  150.2910  138.3920 H   0  0  0  0  0  0  0  0  0  0  0  0
  138.9472  150.6337  137.5220 H   0  0  0  0  0  0  0  0  0  0  0  0
  139.6276  148.9713  137.5220 H   0  0  0  0  0  0  0  0  0  0  0  0
  141.3580  151.3250  133.7660 C   0  0  0  0  0  0  0  0  0  0  0  0
  142.1190  150.3670  133.4630 O   0  0  0  0  0  0  0  0  0  0  0  0
  140.3360  151.6680  132.8890 O   0  0  0  0  0  0  0  0  0  0  0  0
  144.3720  154.5770  130.8130 C   0  0  0  0  0  0  0  0  0  0  0  0
  145.2582  153.9293  130.8847 H   0  0  0  0  0  0  0  0  0  0  0  0
  143.5739  154.0478  130.2717 H   0  0  0  0  0  0  0  0  0  0  0  0
  144.6338  155.4981  130.2717 H   0  0  0  0  0  0  0  0  0  0  0  0
  1  2  1  0
  2  3  1  0
  3  4  2  0
  3  5  1  0
  5  6  2  0
  6  7  1  0
  6  8  1  0
  8  9  2  0
  9 10  1  0
  9 11  1  0
 11 12  1  0
 11 13  2  0
 13 14  1  0
 14 15  1  0
 14 16  1  0
 14 17  1  0
 13 18  1  0
 18 19  1  0
 18 20  2  0
 20 21  1  0
 21 22  1  0
 22 23  2  0
 22 24  1  0
 24 25  1  6
 24 26  1  0
 26 27  2  0
 26 28  1  0
 28 29  1  0
 29 30  1  0
 29 31  1  0
 29 32  1  0
 32 33  2  0
 33 34  1  0
 34 35  1  0
 35 36  1  0
 35 37  1  0
 35 38  1  0
 32 39  1  0
 39 40  2  0
 39 41  1  0
 24 42  1  0
 42 43  1  0
 42 44  1  0
 42 45  1  0
 21  5  1  0
 20  8  1  0
M  CHG  3   2  -1  24   1  41  -1
M  END
>  <UniqueID>  (18) 
18

>  <SMILES>  (18) 
CO/N=C(/COC(=O)[NH+](C)C(=O)n1c(C([NH-])=O)cc2ccc(C)cc21)C(=O)[O-]

>  <Energy>  (18) 
80.80753583563096

>  <Genealogy>  (18) 
CO/N=C(/COC(=O)[NH+](C)C(=O)n1c(C([NH-])=O)cc2ccc(C)cc21)C(=O)[O-] (protonated)
CO/N=C(/COC(=O)[NH+](C)C(=O)n1c(C([NH-])=O)cc2ccc(C)cc21)C(=O)[O-] (cis-trans isomerization)
CO/N=C(/COC(=O)[NH+](C)C(=O)n1c(C([NH-])=O)cc2ccc(C)cc21)C(=O)[O-] (3D coordinates assigned)
CO/N=C(/COC(=O)[NH+](C)C(=O)n1c(C([NH-])=O)cc2ccc(C)cc21)C(=O)[O-] (optimized conformer: 80.80753583563096 kcal/mol)

>  <smiles>  (18) 
CO/N=C(/COC(=O)N(C)C(=O)n1c(C(N)=O)cc2ccc(C)cc21)C(=O)O

>  <score_type>  (18) 
oracle

>  <origin>  (18) 
adg

>  <m_score__min__energy>  (18) 
-6.6600000000000001

>  <m_primary>  (18) 
energy

$$$$
18:0
     RDKit          3D

 50 51  0  0  0  0  0  0  0  0999 V2000
  141.5850  155.1240  134.8800 C   0  0  0  0  0  0  0  0  0  0  0  0
  141.8390  153.9670  134.0170 N   0  0  0  0  0  0  0  0  0  0  0  0
  143.1490  153.3030  134.0390 C   0  0  0  0  0  0  0  0  0  0  0  0
  143.8730  153.5140  132.7070 C   0  0  0  0  0  0  0  0  0  0  0  0
  145.1060  154.3530  132.9030 C   0  0  0  0  0  0  0  0  0  0  0  0
  146.3720  153.7330  133.0460 C   0  0  0  0  0  0  0  0  0  0  0  0
  147.5340  154.5070  133.2080 C   0  0  0  0  0  0  0  0  0  0  0  0
  147.4000  155.8920  133.2050 C   0  0  0  0  0  0  0  0  0  0  0  0
  148.3520  156.8730  133.3670 C   0  0  0  0  0  0  0  0  0  0  0  0
  147.6580  158.0780  133.2820 C   0  0  0  0  0  0  0  0  0  0  0  0
  148.3170  159.4000  133.3210 C   0  0  0  0  0  0  0  0  0  0  0  0
  148.1450  160.3380  132.2630 N   0  0  0  0  0  0  0  0  0  0  0  0
  149.0840  159.6860  134.2800 O   0  0  0  0  0  0  0  0  0  0  0  0
  146.3280  157.8530  133.0820 N   0  0  0  0  0  0  0  0  0  0  0  0
  145.2710  158.8240  133.0430 C   0  0  0  0  0  0  0  0  0  0  0  0
  145.3570  159.8190  132.2730 O   0  0  0  0  0  0  0  0  0  0  0  0
  144.1380  158.6470  133.8430 O   0  0  0  0  0  0  0  0  0  0  0  0
  143.3900  159.7370  134.3750 C   0  0  0  0  0  0  0  0  0  0  0  0
  142.8390  159.3850  135.6220 O   0  0  0  0  0  0  0  0  0  0  0  0
  141.1370  159.3480  135.4880 P   0  0  0  0  0  0  0  0  0  0  0  0
  140.5030  160.1260  136.6200 O   0  0  0  0  0  0  0  0  0  0  0  0
  140.5800  157.7520  135.5180 O   0  0  0  0  0  0  0  0  0  0  0  0
  140.6900  160.0560  134.0190 O   0  0  0  0  0  0  0  0  0  0  0  0
  146.1870  156.5090  133.0370 C   0  0  0  0  0  0  0  0  0  0  0  0
  145.0120  155.7620  132.8920 C   0  0  0  0  0  0  0  0  0  0  0  0
  140.7850  153.4840  133.1650 C   0  0  0  0  0  0  0  0  0  0  0  0
  141.0000  152.5220  132.3740 O   0  0  0  0  0  0  0  0  0  0  0  0
  139.5220  154.0850  133.2120 O   0  0  0  0  0  0  0  0  0  0  0  0
  139.2300  155.3280  132.5810 C   0  0  0  0  0  0  0  0  0  0  0  0
  139.3820  156.3700  133.5140 O   0  0  0  0  0  0  0  0  0  0  0  0
  140.2220  157.6270  132.7350 P   0  0  0  0  0  0  0  0  0  0  0  0
  139.4870  158.5670  131.8080 O   0  0  0  0  0  0  0  0  0  0  0  0
  141.8810  157.8240  132.9990 O   0  0  0  0  0  0  0  0  0  0  0  0
  141.6524  154.8170  135.9341 H   0  0  0  0  0  0  0  0  0  0  0  0
  142.3332  155.9043  134.6768 H   0  0  0  0  0  0  0  0  0  0  0  0
  140.5787  155.5191  134.6768 H   0  0  0  0  0  0  0  0  0  0  0  0
  143.7564  153.7252  134.8532 H   0  0  0  0  0  0  0  0  0  0  0  0
  143.0014  152.2248  134.1996 H   0  0  0  0  0  0  0  0  0  0  0  0
  144.1625  152.5365  132.2939 H   0  0  0  0  0  0  0  0  0  0  0  0
  143.1961  154.0342  132.0134 H   0  0  0  0  0  0  0  0  0  0  0  0
  146.4461  152.6356  133.0301 H   0  0  0  0  0  0  0  0  0  0  0  0
  148.5185  154.0327  133.3332 H   0  0  0  0  0  0  0  0  0  0  0  0
  149.4312  156.7349  133.5291 H   0  0  0  0  0  0  0  0  0  0  0  0
  147.2480  160.8600  132.1470 H   0  0  0  0  0  0  0  0  0  0  0  0
  144.0534  160.6051  134.5027 H   0  0  0  0  0  0  0  0  0  0  0  0
  142.5750  159.9867  133.6797 H   0  0  0  0  0  0  0  0  0  0  0  0
  144.0388  156.2606  132.7724 H   0  0  0  0  0  0  0  0  0  0  0  0
  139.9212  155.4843  131.7397 H   0  0  0  0  0  0  0  0  0  0  0  0
  138.1959  155.3170  132.2060 H   0  0  0  0  0  0  0  0  0  0  0  0
  141.9400  158.2650  133.8830 H   0  0  0  0  0  0  0  0  0  0  0  0
  1  2  1  0
  2  3  1  0
  3  4  1  0
  4  5  1  0
  5  6  2  0
  6  7  1  0
  7  8  2  0
  8  9  1  0
  9 10  2  0
 10 11  1  0
 11 12  1  0
 11 13  2  0
 10 14  1  0
 14 15  1  0
 15 16  2  0
 15 17  1  0
 17 18  1  0
 18 19  1  0
 19 20  1  0
 20 21  2  0
 20 22  1  0
 20 23  1  0
 14 24  1  0
 24 25  2  0
  2 26  1  0
 26 27  2  0
 26 28  1  0
 28 29  1  0
 29 30  1  0
 30 31  1  0
 31 32  2  0
 31 33  1  0
 25  5  1  0
 24  8  1  0
  1 34  1  0
  1 35  1  0
  1 36  1  0
  3 37  1  0
  3 38  1  0
  4 39  1  0
  4 40  1  0
  6 41  1  0
  7 42  1  0
  9 43  1  0
 12 44  1  0
 18 45  1  0
 18 46  1  0
 25 47  1  0
 29 48  1  0
 29 49  1  0
 33 50  1  0
M  CHG  4  12  -1  22  -1  23  -1  31   1
M  END
>  <UniqueID>  (19) 
19

>  <SMILES>  (19) 
CN(CCc1ccc2cc(C([NH-])=O)n(C(=O)OCOP(=O)([O-])[O-])c2c1)C(=O)OCO[P+](=O)O

>  <Energy>  (19) 
99.18307827249986

>  <Genealogy>  (19) 
CN(CCc1ccc2cc(C([NH-])=O)n(C(=O)OCOP(=O)([O-])[O-])c2c1)C(=O)OCO[P+](=O)O (protonated)
CN(CCc1ccc2cc(C([NH-])=O)n(C(=O)OCOP(=O)([O-])[O-])c2c1)C(=O)OCO[P+](=O)O (chirality)
CN(CCc1ccc2cc(C([NH-])=O)n(C(=O)OCOP(=O)([O-])[O-])c2c1)C(=O)OCO[P+](=O)O (3D coordinates assigned)
CN(CCc1ccc2cc(C([NH-])=O)n(C(=O)OCOP(=O)([O-])[O-])c2c1)C(=O)OCO[P+](=O)O (optimized conformer: 99.18307827249986 kcal/mol)

>  <smiles>  (19) 
CN(CCc1ccc2cc(C(N)=O)n(C(=O)OCOP(=O)(O)O)c2c1)C(=O)OCO[P+](=O)O

>  <score_type>  (19) 
oracle

>  <origin>  (19) 
adg

>  <m_score__min__energy>  (19) 
-5.8899999999999997

>  <m_primary>  (19) 
energy

$$$$
19:0
     RDKit          3D

 42 44  0  0  0  0  0  0  0  0999 V2000
  143.8740  155.8400  135.1870 C   0  0  0  0  0  0  0  0  0  0  0  0
  143.0960  156.8330  134.4430 N   0  0  0  0  0  0  0  0  0  0  0  0
  141.6850  156.9790  134.7040 C   0  0  0  0  0  0  0  0  0  0  0  0
  141.1030  156.1800  135.4860 O   0  0  0  0  0  0  0  0  0  0  0  0
  140.9680  158.0040  134.0710 O   0  0  0  0  0  0  0  0  0  0  0  0
  139.8860  157.8270  133.2020 C   0  0  0  0  0  0  0  0  0  0  0  0
  139.1340  156.8190  133.2880 O   0  0  0  0  0  0  0  0  0  0  0  0
  139.6000  158.8830  132.1860 C   0  0  0  0  0  0  0  0  0  0  0  0
  140.7760  159.5870  131.9000 O   0  0  0  0  0  0  0  0  0  0  0  0
  143.6980  157.5120  133.3230 C   0  0  0  0  0  0  0  0  0  0  0  0
  143.1310  157.4930  132.1960 O   0  0  0  0  0  0  0  0  0  0  0  0
  144.9420  158.2160  133.4730 N   0  0  0  0  0  0  0  0  0  0  0  0
  145.1290  159.5630  133.5470 C   0  0  0  0  0  0  0  0  0  0  0  0
  144.0600  160.5770  133.6600 C   0  0  0  0  0  0  0  0  0  0  0  0
  142.7040  160.2670  133.3400 N   0  0  0  0  0  0  0  0  0  0  0  0
  144.3450  161.7300  134.0840 O   0  0  0  0  0  0  0  0  0  0  0  0
  146.4840  159.8730  133.4740 C   0  0  0  0  0  0  0  0  0  0  0  0
  147.1280  158.6620  133.3580 C   0  0  0  0  0  0  0  0  0  0  0  0
  148.4780  158.3790  133.1930 C   0  0  0  0  0  0  0  0  0  0  0  0
  148.8550  157.0360  133.0190 C   0  0  0  0  0  0  0  0  0  0  0  0
  147.8810  156.0010  133.0000 C   0  0  0  0  0  0  0  0  0  0  0  0
  148.2880  154.5890  132.7920 C   0  0  0  0  0  0  0  0  0  0  0  0
  149.5120  154.1100  132.3610 C   0  0  0  0  0  0  0  0  0  0  0  0
  149.4650  152.7670  132.3070 N   0  0  0  0  0  0  0  0  0  0  0  0
  148.2730  152.4070  132.6860 O   0  0  0  0  0  0  0  0  0  0  0  0
  147.5310  153.4470  132.9860 C   0  0  0  0  0  0  0  0  0  0  0  0
  146.5160  156.3350  133.1700 C   0  0  0  0  0  0  0  0  0  0  0  0
  146.1750  157.6780  133.3620 C   0  0  0  0  0  0  0  0  0  0  0  0
  143.7438  156.0061  136.2666 H   0  0  0  0  0  0  0  0  0  0  0  0
  143.5243  154.8301  134.9266 H   0  0  0  0  0  0  0  0  0  0  0  0
  144.9382  155.9379  134.9266 H   0  0  0  0  0  0  0  0  0  0  0  0
  139.2209  158.4137  131.2662 H   0  0  0  0  0  0  0  0  0  0  0  0
  138.8444  159.5774  132.5820 H   0  0  0  0  0  0  0  0  0  0  0  0
  141.5240  158.9610  132.0840 H   0  0  0  0  0  0  0  0  0  0  0  0
  142.3990  159.2840  133.1690 H   0  0  0  0  0  0  0  0  0  0  0  0
  141.9760  161.0150  133.3670 H   0  0  0  0  0  0  0  0  0  0  0  0
  146.9424  160.8725  133.5029 H   0  0  0  0  0  0  0  0  0  0  0  0
  149.2297  159.1821  133.1983 H   0  0  0  0  0  0  0  0  0  0  0  0
  149.9183  156.7826  132.8959 H   0  0  0  0  0  0  0  0  0  0  0  0
  150.3843  154.7286  132.1035 H   0  0  0  0  0  0  0  0  0  0  0  0
  146.4873  153.4163  133.3320 H   0  0  0  0  0  0  0  0  0  0  0  0
  145.7402  155.5554  133.1515 H   0  0  0  0  0  0  0  0  0  0  0  0
  1  2  1  0
  2  3  1  0
  3  4  2  0
  3  5  1  0
  5  6  1  0
  6  7  2  0
  6  8  1  0
  8  9  1  0
  2 10  1  0
 10 11  2  0
 10 12  1  0
 12 13  1  0
 13 14  1  0
 14 15  1  0
 14 16  2  0
 13 17  2  0
 17 18  1  0
 18 19  2  0
 19 20  1  0
 20 21  2  0
 21 22  1  0
 22 23  1  0
 23 24  2  0
 24 25  1  0
 25 26  1  0
 21 27  1  0
 27 28  2  0
 28 12  1  0
 28 18  1  0
 26 22  2  0
  1 29  1  0
  1 30  1  0
  1 31  1  0
  8 32  1  0
  8 33  1  0
  9 34  1  0
 15 35  1  0
 15 36  1  0
 17 37  1  0
 19 38  1  0
 20 39  1  0
 23 40  1  0
 26 41  1  0
 27 42  1  0
M  END
>  <UniqueID>  (20) 
20

>  <SMILES>  (20) 
CN(C(=O)OC(=O)CO)C(=O)n1c(C(N)=O)cc2ccc(-c3cnoc3)cc21

>  <Energy>  (20) 
114.55627906176233

>  <Genealogy>  (20) 
CN(C(=O)OC(=O)CO)C(=O)n1c(C(N)=O)cc2ccc(-c3cnoc3)cc21 (3D coordinates assigned)
CN(C(=O)OC(=O)CO)C(=O)n1c(C(N)=O)cc2ccc(-c3cnoc3)cc21 (optimized conformer: 114.55627906176233 kcal/mol)

>  <smiles>  (20) 
CN(C(=O)OC(=O)CO)C(=O)n1c(C(N)=O)cc2ccc(-c3cnoc3)cc21

>  <score_type>  (20) 
oracle

>  <origin>  (20) 
adg

>  <m_score__min__energy>  (20) 
-7.1900000000000004

>  <m_primary>  (20) 
energy

$$$$
20:0
     RDKit          3D

 45 46  0  0  0  0  0  0  0  0999 V2000
  141.8320  154.4320  133.3850 C   0  0  0  0  0  0  0  0  0  0  0  0
  140.8910  155.5510  133.2600 N   0  0  0  0  0  0  0  0  0  0  0  0
  139.4770  155.2650  132.9860 C   0  0  0  0  0  0  0  0  0  0  0  0
  141.3490  156.9180  133.4150 C   0  0  0  0  0  0  0  0  0  0  0  0
  140.4160  157.9770  133.6060 C   0  0  0  0  0  0  0  0  0  0  0  0
  140.8490  159.2990  133.8020 C   0  0  0  0  0  0  0  0  0  0  0  0
  142.2160  159.5460  133.7960 C   0  0  0  0  0  0  0  0  0  0  0  0
  142.9050  160.7160  134.0280 C   0  0  0  0  0  0  0  0  0  0  0  0
  144.2510  160.3700  133.9440 C   0  0  0  0  0  0  0  0  0  0  0  0
  145.3580  161.3350  134.1140 C   0  0  0  0  0  0  0  0  0  0  0  0
  146.5770  161.2040  133.3800 N   0  0  0  0  0  0  0  0  0  0  0  0
  145.2070  162.3170  134.8890 O   0  0  0  0  0  0  0  0  0  0  0  0
  144.3870  159.0430  133.6750 N   0  0  0  0  0  0  0  0  0  0  0  0
  145.5990  158.2800  133.6310 C   0  0  0  0  0  0  0  0  0  0  0  0
  145.7680  157.3360  134.4500 O   0  0  0  0  0  0  0  0  0  0  0  0
  146.5810  158.6040  132.6840 O   0  0  0  0  0  0  0  0  0  0  0  0
  147.9800  158.2890  132.7650 C   0  0  0  0  0  0  0  0  0  0  0  0
  148.1780  156.7640  132.9010 C   0  0  0  0  0  0  0  0  0  0  0  0
  148.6300  159.0150  133.9630 C   0  0  0  0  0  0  0  0  0  0  0  0
  148.6650  158.7960  131.4710 C   0  0  0  0  0  0  0  0  0  0  0  0
  148.2530  160.1910  131.0980 C   0  0  0  0  0  0  0  0  0  0  0  0
  148.5460  161.1350  131.8160 O   0  0  0  0  0  0  0  0  0  0  0  0
  143.1330  158.5510  133.5870 C   0  0  0  0  0  0  0  0  0  0  0  0
  142.7350  157.2230  133.4040 C   0  0  0  0  0  0  0  0  0  0  0  0
  142.0103  154.2200  134.4496 H   0  0  0  0  0  0  0  0  0  0  0  0
  141.4082  153.5405  132.8996 H   0  0  0  0  0  0  0  0  0  0  0  0
  142.7830  154.6966  132.8996 H   0  0  0  0  0  0  0  0  0  0  0  0
  138.9343  155.1552  133.9365 H   0  0  0  0  0  0  0  0  0  0  0  0
  139.0407  156.0931  132.4081 H   0  0  0  0  0  0  0  0  0  0  0  0
  139.3968  154.3324  132.4081 H   0  0  0  0  0  0  0  0  0  0  0  0
  139.3384  157.7561  133.6000 H   0  0  0  0  0  0  0  0  0  0  0  0
  140.1269  160.1145  133.9557 H   0  0  0  0  0  0  0  0  0  0  0  0
  142.4825  161.7103  134.2352 H   0  0  0  0  0  0  0  0  0  0  0  0
  147.3730  161.8520  133.5720 H   0  0  0  0  0  0  0  0  0  0  0  0
  146.6650  160.5290  132.5900 H   0  0  0  0  0  0  0  0  0  0  0  0
  148.2133  156.4924  133.9664 H   0  0  0  0  0  0  0  0  0  0  0  0
  147.3402  156.2409  132.4168 H   0  0  0  0  0  0  0  0  0  0  0  0
  149.1216  156.4721  132.4168 H   0  0  0  0  0  0  0  0  0  0  0  0
  148.2477  158.5880  134.9019 H   0  0  0  0  0  0  0  0  0  0  0  0
  149.7218  158.8880  133.9202 H   0  0  0  0  0  0  0  0  0  0  0  0
  148.3835  160.0862  133.9202 H   0  0  0  0  0  0  0  0  0  0  0  0
  149.7545  158.7806  131.6218 H   0  0  0  0  0  0  0  0  0  0  0  0
  148.3549  158.1307  130.6517 H   0  0  0  0  0  0  0  0  0  0  0  0
  147.6839  160.3640  130.1727 H   0  0  0  0  0  0  0  0  0  0  0  0
  143.4822  156.4297  133.2544 H   0  0  0  0  0  0  0  0  0  0  0  0
  1  2  1  0
  2  3  1  0
  2  4  1  0
  4  5  2  0
  5  6  1  0
  6  7  2  0
  7  8  1  0
  8  9  2  0
  9 10  1  0
 10 11  1  0
 10 12  2  0
  9 13  1  0
 13 14  1  0
 14 15  2  0
 14 16  1  0
 16 17  1  0
 17 18  1  0
 17 19  1  0
 17 20  1  0
 20 21  1  0
 21 22  2  0
 13 23  1  0
 23 24  2  0
 24  4  1  0
 23  7  1  0
  1 25  1  0
  1 26  1  0
  1 27  1  0
  3 28  1  0
  3 29  1  0
  3 30  1  0
  5 31  1  0
  6 32  1  0
  8 33  1  0
 11 34  1  0
 11 35  1  0
 18 36  1  0
 18 37  1  0
 18 38  1  0
 19 39  1  0
 19 40  1  0
 19 41  1  0
 20 42  1  0
 20 43  1  0
 21 44  1  0
 24 45  1  0
M  END
>  <UniqueID>  (21) 
21

>  <SMILES>  (21) 
CN(C)c1ccc2cc(C(N)=O)n(C(=O)OC(C)(C)CC=O)c2c1

>  <Energy>  (21) 
80.53210476563598

>  <Genealogy>  (21) 
CN(C)c1ccc2cc(C(N)=O)n(C(=O)OC(C)(C)CC=O)c2c1 (3D coordinates assigned)
CN(C)c1ccc2cc(C(N)=O)n(C(=O)OC(C)(C)CC=O)c2c1 (optimized conformer: 80.53210476563598 kcal/mol)

>  <smiles>  (21) 
CN(C)c1ccc2cc(C(N)=O)n(C(=O)OC(C)(C)CC=O)c2c1

>  <score_type>  (21) 
oracle

>  <origin>  (21) 
adg

>  <m_score__min__energy>  (21) 
-6.5300000000000002

>  <m_primary>  (21) 
energy

$$$$
21:0
     RDKit          3D

 54 55  0  0  0  0  0  0  0  0999 V2000
  149.4600  152.4500  132.7290 C   0  0  0  0  0  0  0  0  0  0  0  0
  149.1260  153.8670  132.2750 C   0  0  0  0  0  0  0  0  0  0  0  0
  147.9670  154.3860  133.0110 N   0  0  0  0  0  0  0  0  0  0  0  0
  147.0290  153.4550  133.6500 C   0  0  0  0  0  0  0  0  0  0  0  0
  146.1470  152.7790  132.5890 C   0  0  0  0  0  0  0  0  0  0  0  0
  144.6690  152.6470  133.0390 C   0  0  0  0  0  0  0  0  0  0  0  0
  143.6980  153.4230  132.2310 N   0  0  2  0  0  0  0  0  0  0  0  0
  144.3230  154.4930  131.4330 C   0  0  0  0  0  0  0  0  0  0  0  0
  142.6050  153.9150  133.0410 C   0  0  0  0  0  0  0  0  0  0  0  0
  142.8140  154.4730  134.1530 O   0  0  0  0  0  0  0  0  0  0  0  0
  141.2950  153.7370  132.6100 O   0  0  0  0  0  0  0  0  0  0  0  0
  147.7100  155.8020  133.0520 C   0  0  0  0  0  0  0  0  0  0  0  0
  148.7760  156.7270  132.9210 C   0  0  0  0  0  0  0  0  0  0  0  0
  148.5380  158.1090  133.0010 C   0  0  0  0  0  0  0  0  0  0  0  0
  147.2290  158.5340  133.2090 C   0  0  0  0  0  0  0  0  0  0  0  0
  146.7270  159.8050  133.3660 C   0  0  0  0  0  0  0  0  0  0  0  0
  145.3580  159.6380  133.5690 C   0  0  0  0  0  0  0  0  0  0  0  0
  144.4130  160.7650  133.7060 C   0  0  0  0  0  0  0  0  0  0  0  0
  143.0390  160.5840  133.3740 N   0  0  0  0  0  0  0  0  0  0  0  0
  144.7970  161.8780  134.1540 O   0  0  0  0  0  0  0  0  0  0  0  0
  145.0270  158.3150  133.5430 N   0  0  0  0  0  0  0  0  0  0  0  0
  143.7410  157.7270  133.7920 C   0  0  0  0  0  0  0  0  0  0  0  0
  143.5170  157.1430  134.8880 O   0  0  0  0  0  0  0  0  0  0  0  0
  142.7340  157.8230  132.8270 O   0  0  0  0  0  0  0  0  0  0  0  0
  141.4490  157.2320  132.9950 C   0  0  0  0  0  0  0  0  0  0  0  0
  140.3730  158.3070  132.9180 C   0  0  0  0  0  0  0  0  0  0  0  0
  140.7810  159.3270  132.0500 O   0  0  0  0  0  0  0  0  0  0  0  0
  146.1840  157.6530  133.3190 C   0  0  0  0  0  0  0  0  0  0  0  0
  146.3950  156.2710  133.2560 C   0  0  0  0  0  0  0  0  0  0  0  0
  149.4695  152.4098  133.8282 H   0  0  0  0  0  0  0  0  0  0  0  0
  148.7015  151.7530  132.3431 H   0  0  0  0  0  0  0  0  0  0  0  0
  150.4499  152.1651  132.3431 H   0  0  0  0  0  0  0  0  0  0  0  0
  149.9925  154.5192  132.4589 H   0  0  0  0  0  0  0  0  0  0  0  0
  148.8849  153.8478  131.2019 H   0  0  0  0  0  0  0  0  0  0  0  0
  147.5954  152.6858  134.1955 H   0  0  0  0  0  0  0  0  0  0  0  0
  146.3874  154.0139  134.3471 H   0  0  0  0  0  0  0  0  0  0  0  0
  146.1826  153.3783  131.6673 H   0  0  0  0  0  0  0  0  0  0  0  0
  146.5384  151.7637  132.4278 H   0  0  0  0  0  0  0  0  0  0  0  0
  144.3884  151.5849  132.9828 H   0  0  0  0  0  0  0  0  0  0  0  0
  144.6194  153.0576  134.0583 H   0  0  0  0  0  0  0  0  0  0  0  0
  143.2790  152.7520  131.5420 H   0  0  0  0  0  0  0  0  0  0  0  0
  144.7617  155.2440  132.1064 H   0  0  0  0  0  0  0  0  0  0  0  0
  145.1124  154.0638  130.7985 H   0  0  0  0  0  0  0  0  0  0  0  0
  143.5613  154.9698  130.7985 H   0  0  0  0  0  0  0  0  0  0  0  0
  149.7993  156.3591  132.7551 H   0  0  0  0  0  0  0  0  0  0  0  0
  149.3604  158.8328  132.9024 H   0  0  0  0  0  0  0  0  0  0  0  0
  147.2866  160.7516  133.3374 H   0  0  0  0  0  0  0  0  0  0  0  0
  142.7540  159.9730  132.5760 H   0  0  0  0  0  0  0  0  0  0  0  0
  141.2815  156.4900  132.2004 H   0  0  0  0  0  0  0  0  0  0  0  0
  141.4011  156.7398  133.9776 H   0  0  0  0  0  0  0  0  0  0  0  0
  139.4388  157.8622  132.5447 H   0  0  0  0  0  0  0  0  0  0  0  0
  140.2090  158.7283  133.9208 H   0  0  0  0  0  0  0  0  0  0  0  0
  141.7710  159.3480  132.0970 H   0  0  0  0  0  0  0  0  0  0  0  0
  145.5561  155.5675  133.3629 H   0  0  0  0  0  0  0  0  0  0  0  0
  1  2  1  0
  2  3  1  0
  3  4  1  0
  4  5  1  0
  5  6  1  0
  6  7  1  0
  7  8  1  0
  7  9  1  0
  9 10  2  0
  9 11  1  0
  3 12  1  0
 12 13  2  0
 13 14  1  0
 14 15  2  0
 15 16  1  0
 16 17  2  0
 17 18  1  0
 18 19  1  0
 18 20  2  0
 17 21  1  0
 21 22  1  0
 22 23  2  0
 22 24  1  0
 24 25  1  0
 25 26  1  0
 26 27  1  0
 21 28  1  0
 28 29  2  0
 29 12  1  0
 28 15  1  0
  1 30  1  0
  1 31  1  0
  1 32  1  0
  2 33  1  0
  2 34  1  0
  4 35  1  0
  4 36  1  0
  5 37  1  0
  5 38  1  0
  6 39  1  0
  6 40  1  0
  7 41  1  6
  8 42  1  0
  8 43  1  0
  8 44  1  0
 13 45  1  0
 14 46  1  0
 16 47  1  0
 19 48  1  0
 25 49  1  0
 25 50  1  0
 26 51  1  0
 26 52  1  0
 27 53  1  0
 29 54  1  0
M  CHG  3   7   1  11  -1  19  -1
M  END
>  <UniqueID>  (22) 
22

>  <SMILES>  (22) 
CCN(CCC[N@H+](C)C(=O)[O-])c1ccc2cc(C([NH-])=O)n(C(=O)OCCO)c2c1

>  <Energy>  (22) 
91.45337916032493

>  <Genealogy>  (22) 
CCN(CCC[NH+](C)C(=O)[O-])c1ccc2cc(C([NH-])=O)n(C(=O)OCCO)c2c1 (protonated)
CCN(CCC[N@H+](C)C(=O)[O-])c1ccc2cc(C([NH-])=O)n(C(=O)OCCO)c2c1 (chirality)
CCN(CCC[N@H+](C)C(=O)[O-])c1ccc2cc(C([NH-])=O)n(C(=O)OCCO)c2c1 (3D coordinates assigned)
CCN(CCC[N@H+](C)C(=O)[O-])c1ccc2cc(C([NH-])=O)n(C(=O)OCCO)c2c1 (optimized conformer: 91.45337916032493 kcal/mol)

>  <smiles>  (22) 
CCN(CCCN(C)C(=O)O)c1ccc2cc(C(N)=O)n(C(=O)OCCO)c2c1

>  <score_type>  (22) 
oracle

>  <origin>  (22) 
adg

>  <m_score__min__energy>  (22) 
-6.0300000000000002

>  <m_primary>  (22) 
energy

$$$$
22:0
     RDKit          3D

 42 43  0  0  0  0  0  0  0  0999 V2000
  139.0680  160.4920  130.0900 C   0  0  0  0  0  0  0  0  0  0  0  0
  139.1490  159.5900  131.2850 C   0  0  0  0  0  0  0  0  0  0  0  0
  137.9610  159.0620  131.8510 C   0  0  0  0  0  0  0  0  0  0  0  0
  138.0150  158.2420  132.9920 C   0  0  0  0  0  0  0  0  0  0  0  0
  139.2630  157.9830  133.5510 C   0  0  0  0  0  0  0  0  0  0  0  0
  139.6110  157.1930  134.6260 C   0  0  0  0  0  0  0  0  0  0  0  0
  141.0000  157.2730  134.7090 C   0  0  0  0  0  0  0  0  0  0  0  0
  141.8060  156.5970  135.7450 C   0  0  0  0  0  0  0  0  0  0  0  0
  143.2000  156.3820  135.5340 N   0  0  0  0  0  0  0  0  0  0  0  0
  141.2710  156.1830  136.8080 O   0  0  0  0  0  0  0  0  0  0  0  0
  141.4880  158.0880  133.7330 N   0  0  0  0  0  0  0  0  0  0  0  0
  142.8570  158.3420  133.4010 C   0  0  0  0  0  0  0  0  0  0  0  0
  143.3750  157.7790  132.3990 O   0  0  0  0  0  0  0  0  0  0  0  0
  143.6520  159.1620  134.2620 N   0  0  0  0  0  0  0  0  0  0  0  0
  143.8450  160.5950  134.0650 C   0  0  0  0  0  0  0  0  0  0  0  0
  145.3310  160.9420  133.8720 C   0  0  0  0  0  0  0  0  0  0  0  0
  146.0490  159.9470  132.9470 C   0  0  0  0  0  0  0  0  0  0  0  0
  147.3700  159.4700  133.5660 C   0  0  0  0  0  0  0  0  0  0  0  0
  147.4840  158.0590  133.5090 O   0  0  0  0  0  0  0  0  0  0  0  0
  146.2590  157.4450  133.1490 C   0  0  0  0  0  0  0  0  0  0  0  0
  145.5720  157.0510  134.3050 O   0  0  0  0  0  0  0  0  0  0  0  0
  140.4160  158.5090  133.0290 C   0  0  0  0  0  0  0  0  0  0  0  0
  140.3960  159.3140  131.8860 C   0  0  0  0  0  0  0  0  0  0  0  0
  138.9742  161.5358  130.4242 H   0  0  0  0  0  0  0  0  0  0  0  0
  139.9797  160.3813  129.4846 H   0  0  0  0  0  0  0  0  0  0  0  0
  138.1906  160.2206  129.4846 H   0  0  0  0  0  0  0  0  0  0  0  0
  136.9884  159.2959  131.3934 H   0  0  0  0  0  0  0  0  0  0  0  0
  137.0990  157.8182  133.4294 H   0  0  0  0  0  0  0  0  0  0  0  0
  138.9358  156.6210  135.2794 H   0  0  0  0  0  0  0  0  0  0  0  0
  143.7990  157.1240  135.1090 H   0  0  0  0  0  0  0  0  0  0  0  0
  143.2851  160.9118  133.1727 H   0  0  0  0  0  0  0  0  0  0  0  0
  143.4817  161.1188  134.9615 H   0  0  0  0  0  0  0  0  0  0  0  0
  145.4049  161.9483  133.4339 H   0  0  0  0  0  0  0  0  0  0  0  0
  145.8173  160.8951  134.8575 H   0  0  0  0  0  0  0  0  0  0  0  0
  145.3964  159.0775  132.7793 H   0  0  0  0  0  0  0  0  0  0  0  0
  146.2718  160.4530  131.9960 H   0  0  0  0  0  0  0  0  0  0  0  0
  148.2080  159.9200  133.0135 H   0  0  0  0  0  0  0  0  0  0  0  0
  147.3906  159.7781  134.6218 H   0  0  0  0  0  0  0  0  0  0  0  0
  145.6436  158.1602  132.5835 H   0  0  0  0  0  0  0  0  0  0  0  0
  146.4629  156.5612  132.5267 H   0  0  0  0  0  0  0  0  0  0  0  0
  144.6070  157.2050  134.1210 H   0  0  0  0  0  0  0  0  0  0  0  0
  141.3275  159.7215  131.4662 H   0  0  0  0  0  0  0  0  0  0  0  0
  1  2  1  0
  2  3  2  0
  3  4  1  0
  4  5  2  0
  5  6  1  0
  6  7  2  0
  7  8  1  0
  8  9  1  0
  8 10  2  0
  7 11  1  0
 11 12  1  0
 12 13  2  0
 12 14  1  0
 14 15  1  0
 15 16  1  0
 16 17  1  0
 17 18  1  0
 18 19  1  0
 19 20  1  0
 20 21  1  0
 11 22  1  0
 22 23  2  0
 23  2  1  0
 22  5  1  0
  1 24  1  0
  1 25  1  0
  1 26  1  0
  3 27  1  0
  4 28  1  0
  6 29  1  0
  9 30  1  0
 15 31  1  0
 15 32  1  0
 16 33  1  0
 16 34  1  0
 17 35  1  0
 17 36  1  0
 18 37  1  0
 18 38  1  0
 20 39  1  0
 20 40  1  0
 21 41  1  0
 23 42  1  0
M  CHG  2   9  -1  14  -1
M  END
>  <UniqueID>  (23) 
23

>  <SMILES>  (23) 
Cc1ccc2cc(C([NH-])=O)n(C(=O)[N-]CCCCOCO)c2c1

>  <Energy>  (23) 
75.30744250665148

>  <Genealogy>  (23) 
Cc1ccc2cc(C([NH-])=O)n(C(=O)[N-]CCCCOCO)c2c1 (protonated)
Cc1ccc2cc(C([NH-])=O)n(C(=O)[N-]CCCCOCO)c2c1 (3D coordinates assigned)
Cc1ccc2cc(C([NH-])=O)n(C(=O)[N-]CCCCOCO)c2c1 (optimized conformer: 75.30744250665148 kcal/mol)

>  <smiles>  (23) 
Cc1ccc2cc(C(N)=O)n(C(=O)NCCCCOCO)c2c1

>  <score_type>  (23) 
oracle

>  <origin>  (23) 
adg

>  <m_score__min__energy>  (23) 
-6.0999999999999996

>  <m_primary>  (23) 
energy

$$$$
23:0
     RDKit          3D

 40 41  0  0  0  0  0  0  0  0999 V2000
  139.4650  157.8370  133.1660 C   0  0  0  0  0  0  0  0  0  0  0  0
  140.2840  158.2160  134.3220 N   0  0  0  0  0  0  0  0  0  0  0  0
  139.7200  158.0430  135.6690 C   0  0  0  0  0  0  0  0  0  0  0  0
  140.5900  158.7030  136.6960 C   0  0  0  0  0  0  0  0  0  0  0  0
  141.3050  158.0100  137.4660 O   0  0  0  0  0  0  0  0  0  0  0  0
  140.6210  160.0890  136.7940 O   0  0  0  0  0  0  0  0  0  0  0  0
  141.6240  158.7300  134.1250 C   0  0  0  0  0  0  0  0  0  0  0  0
  141.8380  160.1170  133.8970 C   0  0  0  0  0  0  0  0  0  0  0  0
  143.1320  160.6300  133.7050 C   0  0  0  0  0  0  0  0  0  0  0  0
  144.1990  159.7380  133.7380 C   0  0  0  0  0  0  0  0  0  0  0  0
  145.5490  159.9620  133.5880 C   0  0  0  0  0  0  0  0  0  0  0  0
  146.1470  158.7080  133.7050 C   0  0  0  0  0  0  0  0  0  0  0  0
  147.5930  158.4520  133.5110 C   0  0  0  0  0  0  0  0  0  0  0  0
  148.2360  157.3560  134.1610 N   0  0  0  0  0  0  0  0  0  0  0  0
  148.2750  159.2170  132.7800 O   0  0  0  0  0  0  0  0  0  0  0  0
  145.2020  157.7510  133.9270 N   0  0  0  0  0  0  0  0  0  0  0  0
  145.4010  156.3450  134.1390 C   0  0  0  0  0  0  0  0  0  0  0  0
  145.0470  155.8230  135.2310 O   0  0  0  0  0  0  0  0  0  0  0  0
  146.0470  155.5100  133.1180 C   0  0  0  0  0  0  0  0  0  0  0  0
  145.4410  155.2460  132.0430 O   0  0  0  0  0  0  0  0  0  0  0  0
  147.3430  155.0270  133.3400 O   0  0  0  0  0  0  0  0  0  0  0  0
  147.6200  153.8620  134.1120 C   0  0  0  0  0  0  0  0  0  0  0  0
  147.6470  154.1960  135.5690 C   0  0  0  0  0  0  0  0  0  0  0  0
  147.3290  153.3280  136.4230 O   0  0  0  0  0  0  0  0  0  0  0  0
  148.0530  155.4570  135.9880 O   0  0  0  0  0  0  0  0  0  0  0  0
  144.0160  158.3970  133.9400 C   0  0  0  0  0  0  0  0  0  0  0  0
  142.7430  157.8580  134.1460 C   0  0  0  0  0  0  0  0  0  0  0  0
  138.5183  157.3989  133.5152 H   0  0  0  0  0  0  0  0  0  0  0  0
  139.2540  158.7290  132.5579 H   0  0  0  0  0  0  0  0  0  0  0  0
  140.0084  157.0988  132.5579 H   0  0  0  0  0  0  0  0  0  0  0  0
  138.7173  158.4941  135.7014 H   0  0  0  0  0  0  0  0  0  0  0  0
  139.6619  156.9676  135.8929 H   0  0  0  0  0  0  0  0  0  0  0  0
  140.9761  160.8000  133.8705 H   0  0  0  0  0  0  0  0  0  0  0  0
  143.2963  161.7041  133.5338 H   0  0  0  0  0  0  0  0  0  0  0  0
  146.0496  160.9257  133.4130 H   0  0  0  0  0  0  0  0  0  0  0  0
  149.2630  157.2070  134.0440 H   0  0  0  0  0  0  0  0  0  0  0  0
  147.6950  156.6640  134.7250 H   0  0  0  0  0  0  0  0  0  0  0  0
  146.8384  153.1104  133.9270 H   0  0  0  0  0  0  0  0  0  0  0  0
  148.6032  153.4653  133.8188 H   0  0  0  0  0  0  0  0  0  0  0  0
  142.6114  156.7800  134.3208 H   0  0  0  0  0  0  0  0  0  0  0  0
  1  2  1  0
  2  3  1  0
  3  4  1  0
  4  5  2  0
  4  6  1  0
  2  7  1  0
  7  8  2  0
  8  9  1  0
  9 10  2  0
 10 11  1  0
 11 12  2  0
 12 13  1  0
 13 14  1  0
 13 15  2  0
 12 16  1  0
 16 17  1  0
 17 18  2  0
 17 19  1  0
 19 20  2  0
 19 21  1  0
 21 22  1  0
 22 23  1  0
 23 24  2  0
 23 25  1  0
 16 26  1  0
 26 27  2  0
 27  7  1  0
 26 10  1  0
  1 28  1  0
  1 29  1  0
  1 30  1  0
  3 31  1  0
  3 32  1  0
  8 33  1  0
  9 34  1  0
 11 35  1  0
 14 36  1  0
 14 37  1  0
 22 38  1  0
 22 39  1  0
 27 40  1  0
M  CHG  2   6  -1  25  -1
M  END
>  <UniqueID>  (24) 
24

>  <SMILES>  (24) 
CN(CC(=O)[O-])c1ccc2cc(C(N)=O)n(C(=O)C(=O)OCC(=O)[O-])c2c1

>  <Energy>  (24) 
78.28817557398797

>  <Genealogy>  (24) 
CN(CC(=O)[O-])c1ccc2cc(C(N)=O)n(C(=O)C(=O)OCC(=O)[O-])c2c1 (protonated)
CN(CC(=O)[O-])c1ccc2cc(C(N)=O)n(C(=O)C(=O)OCC(=O)[O-])c2c1 (3D coordinates assigned)
CN(CC(=O)[O-])c1ccc2cc(C(N)=O)n(C(=O)C(=O)OCC(=O)[O-])c2c1 (optimized conformer: 78.28817557398797 kcal/mol)

>  <smiles>  (24) 
CN(CC(=O)O)c1ccc2cc(C(N)=O)n(C(=O)C(=O)OCC(=O)O)c2c1

>  <score_type>  (24) 
oracle

>  <origin>  (24) 
adg

>  <m_score__min__energy>  (24) 
-6.7199999999999998

>  <m_primary>  (24) 
energy

$$$$
24:0
     RDKit          3D

 58 61  0  0  0  0  0  0  0  0999 V2000
  147.4400  152.6180  133.3670 N   0  0  0  0  0  0  0  0  0  0  0  0
  148.3300  153.6670  132.9800 C   0  0  0  0  0  0  0  0  0  0  0  0
  149.4740  153.3700  132.5460 O   0  0  0  0  0  0  0  0  0  0  0  0
  147.9320  155.0850  133.1210 C   0  0  0  0  0  0  0  0  0  0  0  0
  148.7960  156.1590  132.9130 C   0  0  0  0  0  0  0  0  0  0  0  0
  148.0180  157.2860  133.0460 C   0  0  0  0  0  0  0  0  0  0  0  0
  148.3680  158.6290  132.9550 C   0  0  0  0  0  0  0  0  0  0  0  0
  147.3620  159.5880  133.1680 C   0  0  0  0  0  0  0  0  0  0  0  0
  146.0360  159.1870  133.4660 C   0  0  0  0  0  0  0  0  0  0  0  0
  144.9790  160.2230  133.7470 C   0  0  0  0  0  0  0  0  0  0  0  0
  143.5850  159.7160  133.3600 C   0  0  0  0  0  0  0  0  0  0  0  0
  143.0960  158.7990  134.3220 O   0  0  0  0  0  0  0  0  0  0  0  0
  142.5150  157.6620  133.7010 C   0  0  2  0  0  0  0  0  0  0  0  0
  141.1010  158.0130  133.1890 C   0  0  0  0  0  0  0  0  0  0  0  0
  140.0050  157.5360  134.1500 C   0  0  0  0  0  0  0  0  0  0  0  0
  140.4760  157.6500  135.5970 C   0  0  0  0  0  0  0  0  0  0  0  0
  141.8010  156.8850  135.8030 C   0  0  0  0  0  0  0  0  0  0  0  0
  142.4690  156.5560  134.5920 O   0  0  0  0  0  0  0  0  0  0  0  0
  145.7200  157.8150  133.5610 C   0  0  0  0  0  0  0  0  0  0  0  0
  146.7380  156.8820  133.3240 C   0  0  0  0  0  0  0  0  0  0  0  0
  146.6690  155.5320  133.3760 N   0  0  0  0  0  0  0  0  0  0  0  0
  145.5060  154.7510  133.7020 C   0  0  0  0  0  0  0  0  0  0  0  0
  145.0330  154.7880  134.8710 O   0  0  0  0  0  0  0  0  0  0  0  0
  144.8990  153.9740  132.7070 O   0  0  0  0  0  0  0  0  0  0  0  0
  144.3060  152.7230  132.9100 C   0  0  0  0  0  0  0  0  0  0  0  0
  144.9320  151.6550  132.6590 O   0  0  0  0  0  0  0  0  0  0  0  0
  142.9330  152.6650  133.5110 C   0  0  2  0  0  0  0  0  0  0  0  0
  142.0720  151.6150  132.8260 C   0  0  0  0  0  0  0  0  0  0  0  0
  140.6750  152.1660  132.9520 C   0  0  0  0  0  0  0  0  0  0  0  0
  140.8670  153.6730  132.9760 C   0  0  0  0  0  0  0  0  0  0  0  0
  142.2490  153.9550  133.3760 N   0  0  0  0  0  0  0  0  0  0  0  0
  147.7450  151.6210  133.3020 H   0  0  0  0  0  0  0  0  0  0  0  0
  146.4650  152.8200  133.6810 H   0  0  0  0  0  0  0  0  0  0  0  0
  149.8722  156.1148  132.6897 H   0  0  0  0  0  0  0  0  0  0  0  0
  149.3999  158.9316  132.7235 H   0  0  0  0  0  0  0  0  0  0  0  0
  147.6064  160.6585  133.1027 H   0  0  0  0  0  0  0  0  0  0  0  0
  144.9880  160.4620  134.8207 H   0  0  0  0  0  0  0  0  0  0  0  0
  145.2018  161.1177  133.1472 H   0  0  0  0  0  0  0  0  0  0  0  0
  142.8961  160.5710  133.2946 H   0  0  0  0  0  0  0  0  0  0  0  0
  143.6543  159.2035  132.3892 H   0  0  0  0  0  0  0  0  0  0  0  0
  143.1434  157.3708  132.8464 H   0  0  0  0  0  0  0  0  0  0  0  0
  141.0248  159.1047  133.0778 H   0  0  0  0  0  0  0  0  0  0  0  0
  140.9529  157.5026  132.2259 H   0  0  0  0  0  0  0  0  0  0  0  0
  139.1072  158.1563  134.0116 H   0  0  0  0  0  0  0  0  0  0  0  0
  139.7753  156.4824  133.9327 H   0  0  0  0  0  0  0  0  0  0  0  0
  140.6297  158.7108  135.8439 H   0  0  0  0  0  0  0  0  0  0  0  0
  139.7096  157.2118  136.2533 H   0  0  0  0  0  0  0  0  0  0  0  0
  142.4718  157.5108  136.4099 H   0  0  0  0  0  0  0  0  0  0  0  0
  141.5485  155.9353  136.2973 H   0  0  0  0  0  0  0  0  0  0  0  0
  144.7012  157.4866  133.8145 H   0  0  0  0  0  0  0  0  0  0  0  0
  143.0649  152.4084  134.5725 H   0  0  0  0  0  0  0  0  0  0  0  0
  142.3561  151.5024  131.7693 H   0  0  0  0  0  0  0  0  0  0  0  0
  142.1795  150.6157  133.2731 H   0  0  0  0  0  0  0  0  0  0  0  0
  140.0584  151.8653  132.0921 H   0  0  0  0  0  0  0  0  0  0  0  0
  140.1555  151.7940  133.8474 H   0  0  0  0  0  0  0  0  0  0  0  0
  140.6775  154.0880  131.9751 H   0  0  0  0  0  0  0  0  0  0  0  0
  140.1653  154.1330  133.6874 H   0  0  0  0  0  0  0  0  0  0  0  0
  142.2430  154.4340  134.3080 H   0  0  0  0  0  0  0  0  0  0  0  0
  1  2  1  0
  2  3  2  0
  2  4  1  0
  4  5  2  0
  5  6  1  0
  6  7  2  0
  7  8  1  0
  8  9  2  0
  9 10  1  0
 10 11  1  0
 11 12  1  0
 12 13  1  0
 13 14  1  0
 14 15  1  0
 15 16  1  0
 16 17  1  0
 17 18  1  0
  9 19  1  0
 19 20  2  0
 20 21  1  0
 21 22  1  0
 22 23  2  0
 22 24  1  0
 24 25  1  0
 25 26  2  0
 25 27  1  0
 27 28  1  0
 28 29  1  0
 29 30  1  0
 30 31  1  0
 21  4  1  0
 31 27  1  0
 20  6  1  0
 18 13  1  0
  1 32  1  0
  1 33  1  0
  5 34  1  0
  7 35  1  0
  8 36  1  0
 10 37  1  0
 10 38  1  0
 11 39  1  0
 11 40  1  0
 13 41  1  6
 14 42  1  0
 14 43  1  0
 15 44  1  0
 15 45  1  0
 16 46  1  0
 16 47  1  0
 17 48  1  0
 17 49  1  0
 19 50  1  0
 27 51  1  1
 28 52  1  0
 28 53  1  0
 29 54  1  0
 29 55  1  0
 30 56  1  0
 30 57  1  0
 31 58  1  0
M  END
>  <UniqueID>  (25) 
25

>  <SMILES>  (25) 
NC(=O)c1cc2ccc(CCO[C@@H]3CCCCO3)cc2n1C(=O)OC(=O)[C@@H]1CCCN1

>  <Energy>  (25) 
105.3146211383389

>  <Genealogy>  (25) 
NC(=O)c1cc2ccc(CCO[C@@H]3CCCCO3)cc2n1C(=O)OC(=O)[C@@H]1CCCN1 (chirality)
NC(=O)c1cc2ccc(CCO[C@@H]3CCCCO3)cc2n1C(=O)OC(=O)[C@@H]1CCCN1 (3D coordinates assigned)
NC(=O)c1cc2ccc(CCO[C@@H]3CCCCO3)cc2n1C(=O)OC(=O)[C@@H]1CCCN1 (nonaromatic ring conformer: 105.3146211383389 kcal/mol)

>  <smiles>  (25) 
NC(=O)c1cc2ccc(CCOC3CCCCO3)cc2n1C(=O)OC(=O)C1CCCN1

>  <score_type>  (25) 
oracle

>  <origin>  (25) 
adg

>  <m_score__min__energy>  (25) 
-9.6899999999999995

>  <m_primary>  (25) 
energy

$$$$
25:0
     RDKit          3D

 48 49  0  0  0  0  0  0  0  0999 V2000
  144.5640  161.0630  133.7170 C   0  0  0  0  0  0  0  0  0  0  0  0
  145.6770  160.0750  133.5400 C   0  0  0  0  0  0  0  0  0  0  0  0
  147.0200  160.5220  133.4550 C   0  0  0  0  0  0  0  0  0  0  0  0
  148.0690  159.6050  133.2610 C   0  0  0  0  0  0  0  0  0  0  0  0
  147.7420  158.2580  133.1400 C   0  0  0  0  0  0  0  0  0  0  0  0
  148.5530  157.1580  132.9590 C   0  0  0  0  0  0  0  0  0  0  0  0
  147.6880  156.0660  132.9040 C   0  0  0  0  0  0  0  0  0  0  0  0
  148.1330  154.6790  132.6510 C   0  0  0  0  0  0  0  0  0  0  0  0
  147.1980  153.6040  132.6140 N   0  0  0  0  0  0  0  0  0  0  0  0
  149.3510  154.4450  132.4340 O   0  0  0  0  0  0  0  0  0  0  0  0
  146.3970  156.4750  133.0560 N   0  0  0  0  0  0  0  0  0  0  0  0
  145.2120  155.6680  133.1200 C   0  0  0  0  0  0  0  0  0  0  0  0
  144.7400  155.1720  132.0620 O   0  0  0  0  0  0  0  0  0  0  0  0
  144.5070  155.4670  134.3920 C   0  0  0  0  0  0  0  0  0  0  0  0
  145.1620  155.2010  135.4370 O   0  0  0  0  0  0  0  0  0  0  0  0
  143.1130  155.5860  134.4320 O   0  0  0  0  0  0  0  0  0  0  0  0
  142.4150  156.5140  135.2690 C   0  0  0  0  0  0  0  0  0  0  0  0
  141.3840  157.3580  134.4600 C   0  0  2  0  0  0  0  0  0  0  0  0
  142.0870  157.9480  133.2320 C   0  0  0  0  0  0  0  0  0  0  0  0
  142.7220  157.1150  132.2550 N   0  0  0  0  0  0  0  0  0  0  0  0
  142.1840  159.2000  133.1050 O   0  0  0  0  0  0  0  0  0  0  0  0
  140.8980  158.4790  135.3740 C   0  0  0  0  0  0  0  0  0  0  0  0
  139.6840  158.5840  135.6870 O   0  0  0  0  0  0  0  0  0  0  0  0
  141.8100  159.3440  135.9720 O   0  0  0  0  0  0  0  0  0  0  0  0
  140.2120  156.4300  133.9380 C   0  0  0  0  0  0  0  0  0  0  0  0
  139.2360  157.1010  132.9470 C   0  0  0  0  0  0  0  0  0  0  0  0
  140.7090  155.0960  133.3460 C   0  0  0  0  0  0  0  0  0  0  0  0
  146.4460  157.8150  133.1940 C   0  0  0  0  0  0  0  0  0  0  0  0
  145.3830  158.7010  133.3980 C   0  0  0  0  0  0  0  0  0  0  0  0
  144.3833  161.2234  134.7901 H   0  0  0  0  0  0  0  0  0  0  0  0
  144.8421  162.0171  133.2454 H   0  0  0  0  0  0  0  0  0  0  0  0
  143.6497  160.6737  133.2454 H   0  0  0  0  0  0  0  0  0  0  0  0
  147.2436  161.5956  133.5416 H   0  0  0  0  0  0  0  0  0  0  0  0
  149.1146  159.9422  133.2067 H   0  0  0  0  0  0  0  0  0  0  0  0
  149.6498  157.1447  132.8757 H   0  0  0  0  0  0  0  0  0  0  0  0
  146.3320  153.6660  132.0350 H   0  0  0  0  0  0  0  0  0  0  0  0
  141.8819  155.9559  136.0528 H   0  0  0  0  0  0  0  0  0  0  0  0
  143.1527  157.2023  135.7073 H   0  0  0  0  0  0  0  0  0  0  0  0
  143.1940  157.5470  131.4300 H   0  0  0  0  0  0  0  0  0  0  0  0
  142.7680  156.0780  132.3590 H   0  0  0  0  0  0  0  0  0  0  0  0
  139.6435  156.2249  134.8571 H   0  0  0  0  0  0  0  0  0  0  0  0
  138.4559  157.6373  133.5071 H   0  0  0  0  0  0  0  0  0  0  0  0
  139.7873  157.8119  132.3140 H   0  0  0  0  0  0  0  0  0  0  0  0
  138.7696  156.3317  132.3140 H   0  0  0  0  0  0  0  0  0  0  0  0
  140.9662  154.4056  134.1628 H   0  0  0  0  0  0  0  0  0  0  0  0
  139.9161  154.6518  132.7264 H   0  0  0  0  0  0  0  0  0  0  0  0
  141.5993  155.2789  132.7264 H   0  0  0  0  0  0  0  0  0  0  0  0
  144.3460  158.3373  133.4465 H   0  0  0  0  0  0  0  0  0  0  0  0
  1  2  1  0
  2  3  2  0
  3  4  1  0
  4  5  2  0
  5  6  1  0
  6  7  2  0
  7  8  1  0
  8  9  1  0
  8 10  2  0
  7 11  1  0
 11 12  1  0
 12 13  2  0
 12 14  1  0
 14 15  2  0
 14 16  1  0
 16 17  1  0
 18 17  1  1
 18 19  1  0
 19 20  1  0
 19 21  2  0
 18 22  1  0
 22 23  2  0
 22 24  1  0
 18 25  1  0
 25 26  1  0
 25 27  1  0
 11 28  1  0
 28 29  2  0
 29  2  1  0
 28  5  1  0
  1 30  1  0
  1 31  1  0
  1 32  1  0
  3 33  1  0
  4 34  1  0
  6 35  1  0
  9 36  1  0
 17 37  1  0
 17 38  1  0
 20 39  1  0
 20 40  1  0
 25 41  1  0
 26 42  1  0
 26 43  1  0
 26 44  1  0
 27 45  1  0
 27 46  1  0
 27 47  1  0
 29 48  1  0
M  CHG  2   9  -1  24  -1
M  END
>  <UniqueID>  (26) 
26

>  <SMILES>  (26) 
Cc1ccc2cc(C([NH-])=O)n(C(=O)C(=O)OC[C@](C(N)=O)(C(=O)[O-])C(C)C)c2c1

>  <Energy>  (26) 
91.23444280234929

>  <Genealogy>  (26) 
Cc1ccc2cc(C([NH-])=O)n(C(=O)C(=O)OCC(C(N)=O)(C(=O)[O-])C(C)C)c2c1 (protonated)
Cc1ccc2cc(C([NH-])=O)n(C(=O)C(=O)OC[C@](C(N)=O)(C(=O)[O-])C(C)C)c2c1 (chirality)
Cc1ccc2cc(C([NH-])=O)n(C(=O)C(=O)OC[C@](C(N)=O)(C(=O)[O-])C(C)C)c2c1 (3D coordinates assigned)
Cc1ccc2cc(C([NH-])=O)n(C(=O)C(=O)OC[C@](C(N)=O)(C(=O)[O-])C(C)C)c2c1 (optimized conformer: 91.23444280234929 kcal/mol)

>  <smiles>  (26) 
Cc1ccc2cc(C(N)=O)n(C(=O)C(=O)OCC(C(N)=O)(C(=O)O)C(C)C)c2c1

>  <score_type>  (26) 
oracle

>  <origin>  (26) 
adg

>  <m_score__min__energy>  (26) 
-8.4299999999999997

>  <m_primary>  (26) 
energy

$$$$
26:0
     RDKit          3D

 53 55  0  0  0  0  0  0  0  0999 V2000
  139.8450  150.9270  132.2160 C   0  0  0  0  0  0  0  0  0  0  0  0
  140.9190  151.6460  133.0500 C   0  0  0  0  0  0  0  0  0  0  0  0
  142.0730  150.6820  133.3620 C   0  0  0  0  0  0  0  0  0  0  0  0
  141.4410  152.9580  132.4000 C   0  0  2  0  0  0  0  0  0  0  0  0
  142.9050  153.0140  132.4380 N   0  0  0  0  0  0  0  0  0  0  0  0
  140.8350  154.2010  133.0070 C   0  0  0  0  0  0  0  0  0  0  0  0
  139.5850  154.2740  133.1570 O   0  0  0  0  0  0  0  0  0  0  0  0
  141.6600  155.2600  133.4040 O   0  0  0  0  0  0  0  0  0  0  0  0
  142.4020  155.2480  134.6180 C   0  0  0  0  0  0  0  0  0  0  0  0
  143.7970  155.3260  134.3390 O   0  0  0  0  0  0  0  0  0  0  0  0
  144.3030  155.8850  133.1610 C   0  0  0  0  0  0  0  0  0  0  0  0
  144.2180  155.2550  132.0710 O   0  0  0  0  0  0  0  0  0  0  0  0
  144.8880  157.1950  133.1870 N   0  0  0  0  0  0  0  0  0  0  0  0
  146.2070  157.5170  133.0650 C   0  0  0  0  0  0  0  0  0  0  0  0
  147.2890  156.5730  132.7070 C   0  0  0  0  0  0  0  0  0  0  0  0
  147.0770  155.5560  131.7260 N   0  0  0  0  0  0  0  0  0  0  0  0
  148.4050  156.6400  133.2880 O   0  0  0  0  0  0  0  0  0  0  0  0
  146.3920  158.8870  133.2430 C   0  0  0  0  0  0  0  0  0  0  0  0
  145.1370  159.3970  133.4850 C   0  0  0  0  0  0  0  0  0  0  0  0
  144.7400  160.7010  133.7650 C   0  0  0  0  0  0  0  0  0  0  0  0
  143.3790  160.9350  134.0210 C   0  0  0  0  0  0  0  0  0  0  0  0
  142.4430  159.8700  133.9870 C   0  0  0  0  0  0  0  0  0  0  0  0
  140.9950  160.1170  134.3220 C   0  0  2  0  0  0  0  0  0  0  0  0
  140.7800  159.9610  135.6820 F   0  0  0  0  0  0  0  0  0  0  0  0
  140.1510  159.1850  133.5810 N   0  0  0  0  0  0  0  0  0  0  0  0
  139.7450  159.3320  132.3050 C   0  0  0  0  0  0  0  0  0  0  0  0
  139.0250  158.2100  131.9660 C   0  0  0  0  0  0  0  0  0  0  0  0
  138.4370  157.9470  130.7740 F   0  0  0  0  0  0  0  0  0  0  0  0
  139.0370  157.4040  133.0840 C   0  0  0  0  0  0  0  0  0  0  0  0
  139.7380  158.0190  134.0580 N   0  0  0  0  0  0  0  0  0  0  0  0
  142.8860  158.5570  133.7140 C   0  0  0  0  0  0  0  0  0  0  0  0
  144.2460  158.3560  133.4460 C   0  0  0  0  0  0  0  0  0  0  0  0
  139.1217  150.4428  132.8886 H   0  0  0  0  0  0  0  0  0  0  0  0
  139.3230  151.6584  131.5815 H   0  0  0  0  0  0  0  0  0  0  0  0
  140.3223  150.1657  131.5815 H   0  0  0  0  0  0  0  0  0  0  0  0
  140.4369  151.9572  133.9884 H   0  0  0  0  0  0  0  0  0  0  0  0
  142.1868  150.5869  134.4520 H   0  0  0  0  0  0  0  0  0  0  0  0
  141.8536  149.6950  132.9288 H   0  0  0  0  0  0  0  0  0  0  0  0
  143.0052  151.0736  132.9288 H   0  0  0  0  0  0  0  0  0  0  0  0
  141.1158  152.9366  131.3494 H   0  0  0  0  0  0  0  0  0  0  0  0
  143.2460  153.3580  131.5100 H   0  0  0  0  0  0  0  0  0  0  0  0
  143.2230  153.7110  133.1500 H   0  0  0  0  0  0  0  0  0  0  0  0
  142.1054  156.1094  135.2344 H   0  0  0  0  0  0  0  0  0  0  0  0
  142.1942  154.3125  135.1581 H   0  0  0  0  0  0  0  0  0  0  0  0
  147.8360  154.8730  131.5080 H   0  0  0  0  0  0  0  0  0  0  0  0
  146.1870  155.4990  131.1860 H   0  0  0  0  0  0  0  0  0  0  0  0
  147.3403  159.4428  133.1993 H   0  0  0  0  0  0  0  0  0  0  0  0
  145.4700  161.5236  133.7852 H   0  0  0  0  0  0  0  0  0  0  0  0
  143.0356  161.9546  134.2502 H   0  0  0  0  0  0  0  0  0  0  0  0
  140.7384  161.1485  134.0387 H   0  0  0  0  0  0  0  0  0  0  0  0
  139.9517  160.1931  131.6525 H   0  0  0  0  0  0  0  0  0  0  0  0
  138.5535  156.4195  133.1680 H   0  0  0  0  0  0  0  0  0  0  0  0
  142.1804  157.7131  133.7119 H   0  0  0  0  0  0  0  0  0  0  0  0
  1  2  1  0
  2  3  1  0
  2  4  1  0
  4  5  1  0
  4  6  1  0
  6  7  2  0
  6  8  1  0
  8  9  1  0
  9 10  1  0
 10 11  1  0
 11 12  2  0
 11 13  1  0
 13 14  1  0
 14 15  1  0
 15 16  1  0
 15 17  2  0
 14 18  2  0
 18 19  1  0
 19 20  2  0
 20 21  1  0
 21 22  2  0
 22 23  1  0
 23 24  1  0
 23 25  1  0
 25 26  1  0
 26 27  2  0
 27 28  1  0
 27 29  1  0
 29 30  2  0
 22 31  1  0
 31 32  2  0
 32 13  1  0
 32 19  1  0
 30 25  1  0
  1 33  1  0
  1 34  1  0
  1 35  1  0
  2 36  1  0
  3 37  1  0
  3 38  1  0
  3 39  1  0
  4 40  1  6
  5 41  1  0
  5 42  1  0
  9 43  1  0
  9 44  1  0
 16 45  1  0
 16 46  1  0
 18 47  1  0
 20 48  1  0
 21 49  1  0
 23 50  1  6
 26 51  1  0
 29 52  1  0
 31 53  1  0
M  END
>  <UniqueID>  (27) 
27

>  <SMILES>  (27) 
CC(C)[C@H](N)C(=O)OCOC(=O)n1c(C(N)=O)cc2ccc([C@H](F)n3cc(F)cn3)cc21

>  <Energy>  (27) 
114.48499928428993

>  <Genealogy>  (27) 
CC(C)[C@H](N)C(=O)OCOC(=O)n1c(C(N)=O)cc2ccc([C@H](F)n3cc(F)cn3)cc21 (chirality)
CC(C)[C@H](N)C(=O)OCOC(=O)n1c(C(N)=O)cc2ccc([C@H](F)n3cc(F)cn3)cc21 (3D coordinates assigned)
CC(C)[C@H](N)C(=O)OCOC(=O)n1c(C(N)=O)cc2ccc([C@H](F)n3cc(F)cn3)cc21 (optimized conformer: 114.48499928428993 kcal/mol)

>  <smiles>  (27) 
CC(C)C(N)C(=O)OCOC(=O)n1c(C(N)=O)cc2ccc(C(F)n3cc(F)cn3)cc21

>  <score_type>  (27) 
oracle

>  <origin>  (27) 
adg

>  <m_score__min__energy>  (27) 
-7.9500000000000002

>  <m_primary>  (27) 
energy

$$$$
27:0
     RDKit          3D

 37 38  0  0  0  0  0  0  0  0999 V2000
  142.6790  160.8750  133.7380 N   0  0  0  0  0  0  0  0  0  0  0  0
  144.0610  161.2220  133.7350 C   0  0  0  0  0  0  0  0  0  0  0  0
  144.3970  162.4170  133.9540 O   0  0  0  0  0  0  0  0  0  0  0  0
  145.1030  160.1940  133.5350 C   0  0  0  0  0  0  0  0  0  0  0  0
  146.4500  160.4930  133.3410 C   0  0  0  0  0  0  0  0  0  0  0  0
  147.0880  159.2750  133.2760 C   0  0  0  0  0  0  0  0  0  0  0  0
  148.4300  158.9790  133.0630 C   0  0  0  0  0  0  0  0  0  0  0  0
  148.8040  157.6260  132.9980 C   0  0  0  0  0  0  0  0  0  0  0  0
  147.8390  156.5970  133.1530 C   0  0  0  0  0  0  0  0  0  0  0  0
  148.2420  155.1520  133.0150 C   0  0  0  0  0  0  0  0  0  0  0  0
  148.3420  154.5510  134.2590 F   0  0  0  0  0  0  0  0  0  0  0  0
  147.2910  154.4830  132.2680 F   0  0  0  0  0  0  0  0  0  0  0  0
  149.4700  155.0450  132.3850 F   0  0  0  0  0  0  0  0  0  0  0  0
  146.4800  156.9420  133.3430 C   0  0  0  0  0  0  0  0  0  0  0  0
  146.1410  158.2970  133.4250 C   0  0  0  0  0  0  0  0  0  0  0  0
  144.9150  158.8450  133.5840 N   0  0  0  0  0  0  0  0  0  0  0  0
  143.6710  158.1340  133.6640 C   0  0  0  0  0  0  0  0  0  0  0  0
  143.1650  157.6360  132.6230 O   0  0  0  0  0  0  0  0  0  0  0  0
  143.0160  158.0230  134.8960 O   0  0  0  0  0  0  0  0  0  0  0  0
  141.9920  157.0660  135.1670 C   0  0  0  0  0  0  0  0  0  0  0  0
  140.5930  157.6310  134.8690 C   0  0  2  0  0  0  0  0  0  0  0  0
  140.6540  158.6230  133.8730 O   0  0  0  0  0  0  0  0  0  0  0  0
  139.9010  158.1460  136.1480 C   0  0  0  0  0  0  0  0  0  0  0  0
  140.6250  159.3310  136.7090 C   0  0  0  0  0  0  0  0  0  0  0  0
  140.9630  159.3530  137.9220 O   0  0  0  0  0  0  0  0  0  0  0  0
  140.9650  160.3920  135.8800 O   0  0  0  0  0  0  0  0  0  0  0  0
  142.3430  160.0100  134.2150 H   0  0  0  0  0  0  0  0  0  0  0  0
  146.9065  161.4903  133.2575 H   0  0  0  0  0  0  0  0  0  0  0  0
  149.1759  159.7794  132.9489 H   0  0  0  0  0  0  0  0  0  0  0  0
  149.8575  157.3613  132.8249 H   0  0  0  0  0  0  0  0  0  0  0  0
  145.7078  156.1629  133.4244 H   0  0  0  0  0  0  0  0  0  0  0  0
  142.1589  156.1779  134.5398 H   0  0  0  0  0  0  0  0  0  0  0  0
  142.0375  156.8080  136.2353 H   0  0  0  0  0  0  0  0  0  0  0  0
  139.9744  156.8075  134.4827 H   0  0  0  0  0  0  0  0  0  0  0  0
  141.4060  159.2330  134.0940 H   0  0  0  0  0  0  0  0  0  0  0  0
  138.8681  158.4368  135.9061 H   0  0  0  0  0  0  0  0  0  0  0  0
  139.9089  157.3423  136.8990 H   0  0  0  0  0  0  0  0  0  0  0  0
  1  2  1  0
  2  3  2  0
  2  4  1  0
  4  5  2  0
  5  6  1  0
  6  7  2  0
  7  8  1  0
  8  9  2  0
  9 10  1  0
 10 11  1  0
 10 12  1  0
 10 13  1  0
  9 14  1  0
 14 15  2  0
 15 16  1  0
 16 17  1  0
 17 18  2  0
 17 19  1  0
 19 20  1  0
 20 21  1  0
 21 22  1  0
 21 23  1  0
 23 24  1  0
 24 25  2  0
 24 26  1  0
 16  4  1  0
 15  6  1  0
  1 27  1  0
  5 28  1  0
  7 29  1  0
  8 30  1  0
 14 31  1  0
 20 32  1  0
 20 33  1  0
 21 34  1  6
 22 35  1  0
 23 36  1  0
 23 37  1  0
M  CHG  2   1  -1  26  -1
M  END
>  <UniqueID>  (28) 
28

>  <SMILES>  (28) 
[NH-]C(=O)c1cc2ccc(C(F)(F)F)cc2n1C(=O)OC[C@H](O)CC(=O)[O-]

>  <Energy>  (28) 
73.33298382094837

>  <Genealogy>  (28) 
[NH-]C(=O)c1cc2ccc(C(F)(F)F)cc2n1C(=O)OC[C@H](O)CC(=O)[O-] (protonated)
[NH-]C(=O)c1cc2ccc(C(F)(F)F)cc2n1C(=O)OC[C@H](O)CC(=O)[O-] (3D coordinates assigned)
[NH-]C(=O)c1cc2ccc(C(F)(F)F)cc2n1C(=O)OC[C@H](O)CC(=O)[O-] (optimized conformer: 73.33298382094837 kcal/mol)

>  <smiles>  (28) 
NC(=O)c1cc2ccc(C(F)(F)F)cc2n1C(=O)OC[C@H](O)CC(=O)O

>  <score_type>  (28) 
oracle

>  <origin>  (28) 
adg

>  <m_score__min__energy>  (28) 
-5.8700000000000001

>  <m_primary>  (28) 
energy

$$$$
28:0
     RDKit          3D

 30 31  0  0  0  0  0  0  0  0999 V2000
  139.1030  156.0150  132.6140 N   0  0  0  0  0  0  0  0  0  0  0  0
  140.3280  155.6660  133.2550 C   0  0  0  0  0  0  0  0  0  0  0  0
  140.4720  154.5040  133.7180 O   0  0  0  0  0  0  0  0  0  0  0  0
  141.4150  156.6640  133.3580 C   0  0  0  0  0  0  0  0  0  0  0  0
  142.7690  156.3330  133.3830 C   0  0  0  0  0  0  0  0  0  0  0  0
  143.4350  157.5310  133.5150 C   0  0  0  0  0  0  0  0  0  0  0  0
  144.8000  157.7970  133.5690 C   0  0  0  0  0  0  0  0  0  0  0  0
  145.2060  159.1390  133.6700 C   0  0  0  0  0  0  0  0  0  0  0  0
  144.2470  160.1800  133.7030 C   0  0  0  0  0  0  0  0  0  0  0  0
  144.6730  161.5420  133.7900 N   0  0  0  0  0  0  0  0  0  0  0  0
  142.8720  159.8740  133.6420 C   0  0  0  0  0  0  0  0  0  0  0  0
  142.4960  158.5280  133.5640 C   0  0  0  0  0  0  0  0  0  0  0  0
  141.2520  158.0110  133.4770 N   0  0  0  0  0  0  0  0  0  0  0  0
  140.0210  158.7500  133.4770 C   0  0  0  0  0  0  0  0  0  0  0  0
  139.1070  158.4400  134.2870 O   0  0  0  0  0  0  0  0  0  0  0  0
  139.8350  159.9210  132.5620 C   0  0  0  0  0  0  0  0  0  0  0  0
  138.5100  159.5760  131.3650 P   0  0  1  0  0  0  0  0  0  0  0  0
  137.8030  160.8610  131.0000 O   0  0  0  0  0  0  0  0  0  0  0  0
  139.1710  158.8810  129.9710 O   0  0  0  0  0  0  0  0  0  0  0  0
  137.3980  158.5030  132.0530 O   0  0  0  0  0  0  0  0  0  0  0  0
  138.5170  156.8030  132.9690 H   0  0  0  0  0  0  0  0  0  0  0  0
  143.2113  155.3283  133.3123 H   0  0  0  0  0  0  0  0  0  0  0  0
  145.5383  156.9823  133.5337 H   0  0  0  0  0  0  0  0  0  0  0  0
  146.2774  159.3823  133.7238 H   0  0  0  0  0  0  0  0  0  0  0  0
  145.3450  161.9380  133.0940 H   0  0  0  0  0  0  0  0  0  0  0  0
  144.3200  162.1650  134.5510 H   0  0  0  0  0  0  0  0  0  0  0  0
  142.1149  160.6719  133.6554 H   0  0  0  0  0  0  0  0  0  0  0  0
  139.5670  160.8074  133.1557 H   0  0  0  0  0  0  0  0  0  0  0  0
  140.7729  160.1043  132.0173 H   0  0  0  0  0  0  0  0  0  0  0  0
  137.9530  157.8370  132.5310 H   0  0  0  0  0  0  0  0  0  0  0  0
  1  2  1  0
  2  3  2  0
  2  4  1  0
  4  5  2  0
  5  6  1  0
  6  7  2  0
  7  8  1  0
  8  9  2  0
  9 10  1  0
  9 11  1  0
 11 12  2  0
 12 13  1  0
 13 14  1  0
 14 15  2  0
 14 16  1  0
 16 17  1  0
 17 18  2  0
 17 19  1  6
 17 20  1  0
 13  4  1  0
 12  6  1  0
  1 21  1  0
  5 22  1  0
  7 23  1  0
  8 24  1  0
 10 25  1  0
 10 26  1  0
 11 27  1  0
 16 28  1  0
 16 29  1  0
 20 30  1  0
M  CHG  2   1  -1  19  -1
M  END
>  <UniqueID>  (29) 
29

>  <SMILES>  (29) 
[NH-]C(=O)c1cc2ccc(N)cc2n1C(=O)C[P@@](=O)([O-])O

>  <Energy>  (29) 
62.534860215766784

>  <Genealogy>  (29) 
[NH-]C(=O)c1cc2ccc(N)cc2n1C(=O)CP(=O)([O-])O (protonated)
[NH-]C(=O)c1cc2ccc(N)cc2n1C(=O)C[P@@](=O)([O-])O (chirality)
[NH-]C(=O)c1cc2ccc(N)cc2n1C(=O)C[P@@](=O)([O-])O (3D coordinates assigned)
[NH-]C(=O)c1cc2ccc(N)cc2n1C(=O)C[P@@](=O)([O-])O (optimized conformer: 62.534860215766784 kcal/mol)

>  <smiles>  (29) 
NC(=O)c1cc2ccc(N)cc2n1C(=O)CP(=O)(O)O

>  <score_type>  (29) 
oracle

>  <origin>  (29) 
adg

>  <m_score__min__energy>  (29) 
-5.4299999999999997

>  <m_primary>  (29) 
energy

$$$$
29:0
     RDKit          3D

 44 46  0  0  0  0  0  0  0  0999 V2000
  142.6880  160.3080  133.3830 N   0  0  0  0  0  0  0  0  0  0  0  0
  144.0450  160.5160  133.7640 C   0  0  0  0  0  0  0  0  0  0  0  0
  144.3620  161.5800  134.3620 O   0  0  0  0  0  0  0  0  0  0  0  0
  145.0710  159.4810  133.5190 C   0  0  0  0  0  0  0  0  0  0  0  0
  146.4340  159.7580  133.4440 C   0  0  0  0  0  0  0  0  0  0  0  0
  147.0470  158.5350  133.2960 C   0  0  0  0  0  0  0  0  0  0  0  0
  148.3950  158.2230  133.1570 C   0  0  0  0  0  0  0  0  0  0  0  0
  148.7450  156.8730  132.9850 C   0  0  0  0  0  0  0  0  0  0  0  0
  147.7460  155.8630  132.9440 C   0  0  0  0  0  0  0  0  0  0  0  0
  148.1260  154.4410  132.7470 C   0  0  0  0  0  0  0  0  0  0  0  0
  147.1500  153.4290  132.7890 C   0  0  0  0  0  0  0  0  0  0  0  0
  147.5070  152.0900  132.6020 C   0  0  0  0  0  0  0  0  0  0  0  0
  148.8450  151.7340  132.3690 C   0  0  0  0  0  0  0  0  0  0  0  0
  149.2180  150.3160  132.1740 C   0  0  0  0  0  0  0  0  0  0  0  0
  148.5200  149.3950  132.6780 O   0  0  0  0  0  0  0  0  0  0  0  0
  150.3430  149.9780  131.4310 O   0  0  0  0  0  0  0  0  0  0  0  0
  149.8210  152.7450  132.3270 C   0  0  0  0  0  0  0  0  0  0  0  0
  149.4640  154.0840  132.5130 C   0  0  0  0  0  0  0  0  0  0  0  0
  146.3860  156.2250  133.0880 C   0  0  0  0  0  0  0  0  0  0  0  0
  146.0700  157.5750  133.2790 C   0  0  0  0  0  0  0  0  0  0  0  0
  144.8490  158.1410  133.4130 N   0  0  0  0  0  0  0  0  0  0  0  0
  143.5820  157.4660  133.3450 C   0  0  0  0  0  0  0  0  0  0  0  0
  143.4330  156.4830  132.5710 O   0  0  0  0  0  0  0  0  0  0  0  0
  142.5130  157.9160  134.1260 O   0  0  0  0  0  0  0  0  0  0  0  0
  141.1540  157.7690  133.7290 C   0  0  0  0  0  0  0  0  0  0  0  0
  140.3360  158.6540  134.4870 O   0  0  0  0  0  0  0  0  0  0  0  0
  140.1750  158.5400  135.8720 C   0  0  0  0  0  0  0  0  0  0  0  0
  139.2100  157.8880  136.3570 O   0  0  0  0  0  0  0  0  0  0  0  0
  141.1290  159.2420  136.7830 C   0  0  0  0  0  0  0  0  0  0  0  0
  142.3790  159.3680  136.1640 O   0  0  0  0  0  0  0  0  0  0  0  0
  141.9750  160.0020  134.0820 H   0  0  0  0  0  0  0  0  0  0  0  0
  146.9176  160.7448  133.4927 H   0  0  0  0  0  0  0  0  0  0  0  0
  149.1640  159.0092  133.1810 H   0  0  0  0  0  0  0  0  0  0  0  0
  149.8041  156.5948  132.8809 H   0  0  0  0  0  0  0  0  0  0  0  0
  146.0977  153.6930  132.9704 H   0  0  0  0  0  0  0  0  0  0  0  0
  146.7331  151.3091  132.6378 H   0  0  0  0  0  0  0  0  0  0  0  0
  150.8734  152.4806  132.1464 H   0  0  0  0  0  0  0  0  0  0  0  0
  150.2380  154.8647  132.4757 H   0  0  0  0  0  0  0  0  0  0  0  0
  145.5943  155.4622  133.0507 H   0  0  0  0  0  0  0  0  0  0  0  0
  141.0574  158.0070  132.6594 H   0  0  0  0  0  0  0  0  0  0  0  0
  140.8320  156.7322  133.9064 H   0  0  0  0  0  0  0  0  0  0  0  0
  140.7373  160.2423  137.0195 H   0  0  0  0  0  0  0  0  0  0  0  0
  141.2417  158.6568  137.7076 H   0  0  0  0  0  0  0  0  0  0  0  0
  142.2190  159.3040  135.1850 H   0  0  0  0  0  0  0  0  0  0  0  0
  1  2  1  0
  2  3  2  0
  2  4  1  0
  4  5  2  0
  5  6  1  0
  6  7  2  0
  7  8  1  0
  8  9  2  0
  9 10  1  0
 10 11  2  0
 11 12  1  0
 12 13  2  0
 13 14  1  0
 14 15  2  0
 14 16  1  0
 13 17  1  0
 17 18  2  0
  9 19  1  0
 19 20  2  0
 20 21  1  0
 21 22  1  0
 22 23  2  0
 22 24  1  0
 24 25  1  0
 25 26  1  0
 26 27  1  0
 27 28  2  0
 27 29  1  0
 29 30  1  0
 21  4  1  0
 20  6  1  0
 18 10  1  0
  1 31  1  0
  5 32  1  0
  7 33  1  0
  8 34  1  0
 11 35  1  0
 12 36  1  0
 17 37  1  0
 18 38  1  0
 19 39  1  0
 25 40  1  0
 25 41  1  0
 29 42  1  0
 29 43  1  0
 30 44  1  0
M  CHG  2   1  -1  16  -1
M  END
>  <UniqueID>  (30) 
30

>  <SMILES>  (30) 
[NH-]C(=O)c1cc2ccc(-c3ccc(C(=O)[O-])cc3)cc2n1C(=O)OCOC(=O)CO

>  <Energy>  (30) 
86.66764201394673

>  <Genealogy>  (30) 
[NH-]C(=O)c1cc2ccc(-c3ccc(C(=O)[O-])cc3)cc2n1C(=O)OCOC(=O)CO (protonated)
[NH-]C(=O)c1cc2ccc(-c3ccc(C(=O)[O-])cc3)cc2n1C(=O)OCOC(=O)CO (3D coordinates assigned)
[NH-]C(=O)c1cc2ccc(-c3ccc(C(=O)[O-])cc3)cc2n1C(=O)OCOC(=O)CO (optimized conformer: 86.66764201394673 kcal/mol)

>  <smiles>  (30) 
NC(=O)c1cc2ccc(-c3ccc(C(=O)O)cc3)cc2n1C(=O)OCOC(=O)CO

>  <score_type>  (30) 
oracle

>  <origin>  (30) 
adg

>  <m_score__min__energy>  (30) 
-6.96

>  <m_primary>  (30) 
energy

$$$$
30:0
     RDKit          3D

 33 34  0  0  0  0  0  0  0  0999 V2000
  141.8810  159.8830  134.8100 N   0  0  0  0  0  0  0  0  0  0  0  0
  142.8150  160.5570  133.9700 C   0  0  0  0  0  0  0  0  0  0  0  0
  142.4680  161.6260  133.4000 O   0  0  0  0  0  0  0  0  0  0  0  0
  144.1650  160.0040  133.7330 C   0  0  0  0  0  0  0  0  0  0  0  0
  145.3270  160.7750  133.7340 C   0  0  0  0  0  0  0  0  0  0  0  0
  146.3470  159.9000  133.4360 C   0  0  0  0  0  0  0  0  0  0  0  0
  147.7170  160.1220  133.3320 C   0  0  0  0  0  0  0  0  0  0  0  0
  148.5420  159.0200  133.0500 C   0  0  0  0  0  0  0  0  0  0  0  0
  147.9900  157.7240  132.8780 C   0  0  0  0  0  0  0  0  0  0  0  0
  148.8500  156.5940  132.6330 N   0  0  0  0  0  0  0  0  0  0  0  0
  148.0920  155.3440  132.7810 C   0  0  0  0  0  0  0  0  0  0  0  0
  148.9940  154.1180  132.5920 C   0  0  0  0  0  0  0  0  0  0  0  0
  150.3000  154.5050  132.2570 O   0  0  0  0  0  0  0  0  0  0  0  0
  146.5930  157.5390  133.0050 C   0  0  0  0  0  0  0  0  0  0  0  0
  145.7950  158.6560  133.2680 C   0  0  0  0  0  0  0  0  0  0  0  0
  144.4570  158.7050  133.4420 N   0  0  0  0  0  0  0  0  0  0  0  0
  143.5570  157.5870  133.4210 C   0  0  0  0  0  0  0  0  0  0  0  0
  142.8480  157.3760  132.4000 O   0  0  0  0  0  0  0  0  0  0  0  0
  143.4530  156.6810  134.5740 C   0  0  0  0  0  0  0  0  0  0  0  0
  142.4800  156.7700  135.3670 O   0  0  0  0  0  0  0  0  0  0  0  0
  144.4390  155.7310  134.8040 O   0  0  0  0  0  0  0  0  0  0  0  0
  141.9680  158.8600  134.9980 H   0  0  0  0  0  0  0  0  0  0  0  0
  145.4108  161.8539  133.9312 H   0  0  0  0  0  0  0  0  0  0  0  0
  148.1406  161.1283  133.4663 H   0  0  0  0  0  0  0  0  0  0  0  0
  149.6290  159.1637  132.9615 H   0  0  0  0  0  0  0  0  0  0  0  0
  149.2450  156.6600  131.6650 H   0  0  0  0  0  0  0  0  0  0  0  0
  149.6500  156.6060  133.3100 H   0  0  0  0  0  0  0  0  0  0  0  0
  147.6490  155.3109  133.7873 H   0  0  0  0  0  0  0  0  0  0  0  0
  147.3086  155.3202  132.0092 H   0  0  0  0  0  0  0  0  0  0  0  0
  149.0182  153.5408  133.5281 H   0  0  0  0  0  0  0  0  0  0  0  0
  148.5879  153.5054  131.7736 H   0  0  0  0  0  0  0  0  0  0  0  0
  150.7310  153.7150  131.8380 H   0  0  0  0  0  0  0  0  0  0  0  0
  146.1455  156.5397  132.8993 H   0  0  0  0  0  0  0  0  0  0  0  0
  1  2  1  0
  2  3  2  0
  2  4  1  0
  4  5  2  0
  5  6  1  0
  6  7  2  0
  7  8  1  0
  8  9  2  0
  9 10  1  0
 10 11  1  0
 11 12  1  0
 12 13  1  0
  9 14  1  0
 14 15  2  0
 15 16  1  0
 16 17  1  0
 17 18  2  0
 17 19  1  0
 19 20  2  0
 19 21  1  0
 16  4  1  0
 15  6  1  0
  1 22  1  0
  5 23  1  0
  7 24  1  0
  8 25  1  0
 10 26  1  0
 10 27  1  0
 11 28  1  0
 11 29  1  0
 12 30  1  0
 12 31  1  0
 13 32  1  0
 14 33  1  0
M  CHG  3   1  -1  10   1  21  -1
M  END
>  <UniqueID>  (31) 
31

>  <SMILES>  (31) 
[NH-]C(=O)c1cc2ccc([NH2+]CCO)cc2n1C(=O)C(=O)[O-]

>  <Energy>  (31) 
71.05234449345731

>  <Genealogy>  (31) 
[NH-]C(=O)c1cc2ccc([NH2+]CCO)cc2n1C(=O)C(=O)[O-] (protonated)
[NH-]C(=O)c1cc2ccc([NH2+]CCO)cc2n1C(=O)C(=O)[O-] (3D coordinates assigned)
[NH-]C(=O)c1cc2ccc([NH2+]CCO)cc2n1C(=O)C(=O)[O-] (optimized conformer: 71.05234449345731 kcal/mol)

>  <smiles>  (31) 
NC(=O)c1cc2ccc(NCCO)cc2n1C(=O)C(=O)O

>  <score_type>  (31) 
oracle

>  <origin>  (31) 
adg

>  <m_score__min__energy>  (31) 
-5.5700000000000003

>  <m_primary>  (31) 
energy

$$$$
31:0
     RDKit          3D

 41 42  0  0  0  0  0  0  0  0999 V2000
  141.5610  155.0860  134.3440 C   0  0  0  0  0  0  0  0  0  0  0  0
  140.8090  155.7400  133.4560 C   0  0  0  0  0  0  0  0  0  0  0  0
  139.5180  155.1420  132.9840 C   0  0  0  0  0  0  0  0  0  0  0  0
  141.1790  157.0640  133.0290 N   0  0  0  0  0  0  0  0  0  0  0  0
  140.0920  158.0160  132.7480 C   0  0  0  0  0  0  0  0  0  0  0  0
  140.2690  159.2780  133.5360 C   0  0  0  0  0  0  0  0  0  0  0  0
  140.2780  159.2440  134.7950 O   0  0  0  0  0  0  0  0  0  0  0  0
  140.3720  160.4990  132.8820 O   0  0  0  0  0  0  0  0  0  0  0  0
  142.5870  157.4090  132.9460 C   0  0  0  0  0  0  0  0  0  0  0  0
  143.2240  157.1230  131.8950 O   0  0  0  0  0  0  0  0  0  0  0  0
  143.3330  158.0960  134.0320 C   0  0  0  0  0  0  0  0  0  0  0  0
  142.8500  158.2070  135.1890 O   0  0  0  0  0  0  0  0  0  0  0  0
  144.6290  158.6540  133.7690 N   0  0  0  0  0  0  0  0  0  0  0  0
  144.9390  159.9680  133.5890 C   0  0  0  0  0  0  0  0  0  0  0  0
  143.9900  161.0960  133.7450 C   0  0  0  0  0  0  0  0  0  0  0  0
  142.5860  160.8620  133.8900 N   0  0  0  0  0  0  0  0  0  0  0  0
  144.4120  162.2820  133.7370 O   0  0  0  0  0  0  0  0  0  0  0  0
  146.2940  160.1060  133.2820 C   0  0  0  0  0  0  0  0  0  0  0  0
  146.7990  158.8260  133.2710 C   0  0  0  0  0  0  0  0  0  0  0  0
  148.0830  158.3690  132.9940 C   0  0  0  0  0  0  0  0  0  0  0  0
  148.3110  156.9820  133.0170 C   0  0  0  0  0  0  0  0  0  0  0  0
  147.2590  156.0790  133.3240 C   0  0  0  0  0  0  0  0  0  0  0  0
  147.5000  154.5920  133.2870 C   0  0  0  0  0  0  0  0  0  0  0  0
  147.5990  154.0820  134.5710 F   0  0  0  0  0  0  0  0  0  0  0  0
  148.6760  154.3030  132.6160 F   0  0  0  0  0  0  0  0  0  0  0  0
  146.4470  153.9760  132.6370 F   0  0  0  0  0  0  0  0  0  0  0  0
  145.9620  156.5820  133.5750 C   0  0  0  0  0  0  0  0  0  0  0  0
  145.7720  157.9680  133.5640 C   0  0  0  0  0  0  0  0  0  0  0  0
  142.5085  155.5240  134.6910 H   0  0  0  0  0  0  0  0  0  0  0  0
  141.2332  154.1090  134.7288 H   0  0  0  0  0  0  0  0  0  0  0  0
  138.9059  154.8585  133.8529 H   0  0  0  0  0  0  0  0  0  0  0  0
  138.9729  155.8793  132.3764 H   0  0  0  0  0  0  0  0  0  0  0  0
  139.7279  154.2494  132.3764 H   0  0  0  0  0  0  0  0  0  0  0  0
  140.0939  158.2582  131.6750 H   0  0  0  0  0  0  0  0  0  0  0  0
  139.1365  157.5532  133.0359 H   0  0  0  0  0  0  0  0  0  0  0  0
  141.9280  161.6690  133.9640 H   0  0  0  0  0  0  0  0  0  0  0  0
  142.1970  159.8970  133.9670 H   0  0  0  0  0  0  0  0  0  0  0  0
  146.8419  161.0402  133.0896 H   0  0  0  0  0  0  0  0  0  0  0  0
  148.8966  159.0725  132.7636 H   0  0  0  0  0  0  0  0  0  0  0  0
  149.3152  156.5920  132.7948 H   0  0  0  0  0  0  0  0  0  0  0  0
  145.1222  155.9000  133.7742 H   0  0  0  0  0  0  0  0  0  0  0  0
  1  2  2  0
  2  3  1  0
  2  4  1  0
  4  5  1  0
  5  6  1  0
  6  7  2  0
  6  8  1  0
  4  9  1  0
  9 10  2  0
  9 11  1  0
 11 12  2  0
 11 13  1  0
 13 14  1  0
 14 15  1  0
 15 16  1  0
 15 17  2  0
 14 18  2  0
 18 19  1  0
 19 20  2  0
 20 21  1  0
 21 22  2  0
 22 23  1  0
 23 24  1  0
 23 25  1  0
 23 26  1  0
 22 27  1  0
 27 28  2  0
 28 13  1  0
 28 19  1  0
  1 29  1  0
  1 30  1  0
  3 31  1  0
  3 32  1  0
  3 33  1  0
  5 34  1  0
  5 35  1  0
 16 36  1  0
 16 37  1  0
 18 38  1  0
 20 39  1  0
 21 40  1  0
 27 41  1  0
M  CHG  1   8  -1
M  END
>  <UniqueID>  (32) 
32

>  <SMILES>  (32) 
C=C(C)N(CC(=O)[O-])C(=O)C(=O)n1c(C(N)=O)cc2ccc(C(F)(F)F)cc21

>  <Energy>  (32) 
88.0744418511029

>  <Genealogy>  (32) 
C=C(C)N(CC(=O)[O-])C(=O)C(=O)n1c(C(N)=O)cc2ccc(C(F)(F)F)cc21 (protonated)
C=C(C)N(CC(=O)[O-])C(=O)C(=O)n1c(C(N)=O)cc2ccc(C(F)(F)F)cc21 (3D coordinates assigned)
C=C(C)N(CC(=O)[O-])C(=O)C(=O)n1c(C(N)=O)cc2ccc(C(F)(F)F)cc21 (optimized conformer: 88.0744418511029 kcal/mol)

>  <smiles>  (32) 
C=C(C)N(CC(=O)O)C(=O)C(=O)n1c(C(N)=O)cc2ccc(C(F)(F)F)cc21

>  <score_type>  (32) 
oracle

>  <origin>  (32) 
adg

>  <m_score__min__energy>  (32) 
-7

>  <m_primary>  (32) 
energy

$$$$
32:0
     RDKit          3D

 56 58  0  0  0  0  0  0  0  0999 V2000
  142.2290  155.8760  136.1200 C   0  0  0  0  0  0  0  0  0  0  0  0
  141.7700  156.0010  137.5120 N   0  0  0  0  0  0  0  0  0  0  0  0
  141.4160  154.6880  138.0760 C   0  0  0  0  0  0  0  0  0  0  0  0
  140.6950  157.0070  137.6670 C   0  0  0  0  0  0  0  0  0  0  0  0
  141.0100  158.3410  137.0430 C   0  0  0  0  0  0  0  0  0  0  0  0
  142.0870  158.9280  137.3380 O   0  0  0  0  0  0  0  0  0  0  0  0
  140.1270  158.9060  136.1210 O   0  0  0  0  0  0  0  0  0  0  0  0
  139.1080  158.1520  135.4700 C   0  0  0  0  0  0  0  0  0  0  0  0
  139.3250  158.1810  133.9590 C   0  0  0  0  0  0  0  0  0  0  0  0
  140.5900  157.5240  133.6030 N   0  0  0  0  0  0  0  0  0  0  0  0
  140.5660  156.1720  133.0380 C   0  0  0  0  0  0  0  0  0  0  0  0
  141.8090  158.2920  133.5740 C   0  0  0  0  0  0  0  0  0  0  0  0
  141.7750  159.7030  133.7180 C   0  0  0  0  0  0  0  0  0  0  0  0
  142.9650  160.4490  133.7550 C   0  0  0  0  0  0  0  0  0  0  0  0
  144.1700  159.7600  133.6410 C   0  0  0  0  0  0  0  0  0  0  0  0
  145.4680  160.2200  133.6990 C   0  0  0  0  0  0  0  0  0  0  0  0
  146.2650  159.0910  133.5310 C   0  0  0  0  0  0  0  0  0  0  0  0
  147.7400  159.1300  133.4860 C   0  0  0  0  0  0  0  0  0  0  0  0
  148.5260  158.0430  133.9760 N   0  0  0  0  0  0  0  0  0  0  0  0
  148.3160  160.1200  132.9590 O   0  0  0  0  0  0  0  0  0  0  0  0
  145.4920  157.9790  133.3860 N   0  0  0  0  0  0  0  0  0  0  0  0
  145.9090  156.6060  133.3180 C   0  0  0  0  0  0  0  0  0  0  0  0
  146.9370  156.3020  132.6550 O   0  0  0  0  0  0  0  0  0  0  0  0
  145.1170  155.5260  133.9950 C   0  0  0  0  0  0  0  0  0  0  0  0
  145.9690  154.7840  134.9740 C   0  0  0  0  0  0  0  0  0  0  0  0
  147.3470  154.8650  135.1180 C   0  0  0  0  0  0  0  0  0  0  0  0
  147.8390  154.0520  136.1600 C   0  0  0  0  0  0  0  0  0  0  0  0
  146.9130  153.3490  136.8640 N   0  0  0  0  0  0  0  0  0  0  0  0
  145.4550  153.7410  136.1680 S   0  0  0  0  0  0  0  0  0  0  0  0
  144.2160  158.4050  133.4600 C   0  0  0  0  0  0  0  0  0  0  0  0
  143.0520  157.6340  133.4310 C   0  0  0  0  0  0  0  0  0  0  0  0
  143.2903  155.5870  136.1084 H   0  0  0  0  0  0  0  0  0  0  0  0
  141.6340  155.1072  135.6053 H   0  0  0  0  0  0  0  0  0  0  0  0
  142.1060  156.8404  135.6053 H   0  0  0  0  0  0  0  0  0  0  0  0
  141.4313  154.7446  139.1744 H   0  0  0  0  0  0  0  0  0  0  0  0
  140.4089  154.4030  137.7375 H   0  0  0  0  0  0  0  0  0  0  0  0
  142.1433  153.9354  137.7375 H   0  0  0  0  0  0  0  0  0  0  0  0
  139.7818  156.6125  137.1976 H   0  0  0  0  0  0  0  0  0  0  0  0
  140.5751  157.1809  138.7465 H   0  0  0  0  0  0  0  0  0  0  0  0
  139.1425  157.1109  135.8235 H   0  0  0  0  0  0  0  0  0  0  0  0
  138.1271  158.5917  135.7035 H   0  0  0  0  0  0  0  0  0  0  0  0
  138.4941  157.6563  133.4648 H   0  0  0  0  0  0  0  0  0  0  0  0
  139.3656  159.2292  133.6277 H   0  0  0  0  0  0  0  0  0  0  0  0
  140.5529  155.4340  133.8536 H   0  0  0  0  0  0  0  0  0  0  0  0
  139.6655  156.0496  132.4182 H   0  0  0  0  0  0  0  0  0  0  0  0
  141.4615  156.0177  132.4182 H   0  0  0  0  0  0  0  0  0  0  0  0
  140.8068  160.2183  133.8016 H   0  0  0  0  0  0  0  0  0  0  0  0
  142.9456  161.5428  133.8704 H   0  0  0  0  0  0  0  0  0  0  0  0
  145.8026  161.2574  133.8465 H   0  0  0  0  0  0  0  0  0  0  0  0
  148.0850  157.1470  134.2780 H   0  0  0  0  0  0  0  0  0  0  0  0
  149.5680  158.1050  133.9680 H   0  0  0  0  0  0  0  0  0  0  0  0
  144.2673  155.9797  134.5262 H   0  0  0  0  0  0  0  0  0  0  0  0
  144.7559  154.8201  133.2326 H   0  0  0  0  0  0  0  0  0  0  0  0
  147.9881  155.4970  134.4858 H   0  0  0  0  0  0  0  0  0  0  0  0
  148.9129  153.9902  136.3903 H   0  0  0  0  0  0  0  0  0  0  0  0
  143.1011  156.5429  133.3003 H   0  0  0  0  0  0  0  0  0  0  0  0
  1  2  1  0
  2  3  1  0
  2  4  1  0
  4  5  1  0
  5  6  2  0
  5  7  1  0
  7  8  1  0
  8  9  1  0
  9 10  1  0
 10 11  1  0
 10 12  1  0
 12 13  2  0
 13 14  1  0
 14 15  2  0
 15 16  1  0
 16 17  2  0
 17 18  1  0
 18 19  1  0
 18 20  2  0
 17 21  1  0
 21 22  1  0
 22 23  2  0
 22 24  1  0
 24 25  1  0
 25 26  2  0
 26 27  1  0
 27 28  2  0
 28 29  1  0
 21 30  1  0
 30 31  2  0
 31 12  1  0
 30 15  1  0
 29 25  1  0
  1 32  1  0
  1 33  1  0
  1 34  1  0
  3 35  1  0
  3 36  1  0
  3 37  1  0
  4 38  1  0
  4 39  1  0
  8 40  1  0
  8 41  1  0
  9 42  1  0
  9 43  1  0
 11 44  1  0
 11 45  1  0
 11 46  1  0
 13 47  1  0
 14 48  1  0
 16 49  1  0
 19 50  1  0
 19 51  1  0
 24 52  1  0
 24 53  1  0
 26 54  1  0
 27 55  1  0
 31 56  1  0
M  END
>  <UniqueID>  (33) 
33

>  <SMILES>  (33) 
CN(C)CC(=O)OCCN(C)c1ccc2cc(C(N)=O)n(C(=O)Cc3ccns3)c2c1

>  <Energy>  (33) 
122.4301970287365

>  <Genealogy>  (33) 
CN(C)CC(=O)OCCN(C)c1ccc2cc(C(N)=O)n(C(=O)Cc3ccns3)c2c1 (3D coordinates assigned)
CN(C)CC(=O)OCCN(C)c1ccc2cc(C(N)=O)n(C(=O)Cc3ccns3)c2c1 (optimized conformer: 122.4301970287365 kcal/mol)

>  <smiles>  (33) 
CN(C)CC(=O)OCCN(C)c1ccc2cc(C(N)=O)n(C(=O)Cc3ccns3)c2c1

>  <score_type>  (33) 
oracle

>  <origin>  (33) 
adg

>  <m_score__min__energy>  (33) 
-8.5999999999999996

>  <m_primary>  (33) 
energy

$$$$
33:0
     RDKit          3D

 52 53  0  0  0  0  0  0  0  0999 V2000
  146.1550  157.9940  133.4550 C   0  0  0  0  0  0  0  0  0  0  0  0
  145.2860  158.9790  133.2280 C   0  0  0  0  0  0  0  0  0  0  0  0
  144.0310  158.6420  132.7010 O   0  0  0  0  0  0  0  0  0  0  0  0
  142.8200  158.7360  133.3980 C   0  0  0  0  0  0  0  0  0  0  0  0
  142.3920  159.8550  133.7900 O   0  0  0  0  0  0  0  0  0  0  0  0
  142.0460  157.5500  133.6400 N   0  0  0  0  0  0  0  0  0  0  0  0
  140.7880  157.2710  133.1950 C   0  0  0  0  0  0  0  0  0  0  0  0
  139.8800  158.2160  132.5160 C   0  0  0  0  0  0  0  0  0  0  0  0
  140.3940  159.3140  131.7650 N   0  0  0  0  0  0  0  0  0  0  0  0
  138.6330  158.0840  132.6400 O   0  0  0  0  0  0  0  0  0  0  0  0
  140.4210  155.9740  133.5440 C   0  0  0  0  0  0  0  0  0  0  0  0
  141.4990  155.4630  134.2310 C   0  0  0  0  0  0  0  0  0  0  0  0
  141.6800  154.2100  134.8050 C   0  0  0  0  0  0  0  0  0  0  0  0
  142.9080  153.9430  135.4310 C   0  0  0  0  0  0  0  0  0  0  0  0
  143.9410  154.9190  135.4510 C   0  0  0  0  0  0  0  0  0  0  0  0
  145.2170  154.6580  136.0650 N   0  0  0  0  0  0  0  0  0  0  0  0
  146.5120  154.8550  135.4080 C   0  0  0  0  0  0  0  0  0  0  0  0
  147.6240  154.1050  136.1490 C   0  0  0  0  0  0  0  0  0  0  0  0
  147.0830  153.0810  137.0350 N   0  0  0  0  0  0  0  0  0  0  0  0
  146.5950  153.3570  138.3500 C   0  0  0  0  0  0  0  0  0  0  0  0
  145.4360  152.9750  138.6630 O   0  0  0  0  0  0  0  0  0  0  0  0
  147.4060  154.0460  139.2650 O   0  0  0  0  0  0  0  0  0  0  0  0
  148.6940  153.6290  139.7430 C   0  0  0  0  0  0  0  0  0  0  0  0
  149.7650  153.8120  138.6490 C   0  0  0  0  0  0  0  0  0  0  0  0
  148.5870  152.1350  140.0870 C   0  0  0  0  0  0  0  0  0  0  0  0
  149.0790  154.4060  141.0160 C   0  0  0  0  0  0  0  0  0  0  0  0
  143.7080  156.1850  134.8710 C   0  0  0  0  0  0  0  0  0  0  0  0
  142.4660  156.4320  134.2740 C   0  0  0  0  0  0  0  0  0  0  0  0
  145.6310  160.3750  133.5790 C   0  0  0  0  0  0  0  0  0  0  0  0
  144.7220  161.2210  133.7890 O   0  0  0  0  0  0  0  0  0  0  0  0
  146.9610  160.7630  133.7180 O   0  0  0  0  0  0  0  0  0  0  0  0
  147.1488  158.2216  133.8679 H   0  0  0  0  0  0  0  0  0  0  0  0
  145.8783  156.9536  133.2294 H   0  0  0  0  0  0  0  0  0  0  0  0
  141.3890  159.6120  131.8600 H   0  0  0  0  0  0  0  0  0  0  0  0
  139.4718  155.4658  133.3187 H   0  0  0  0  0  0  0  0  0  0  0  0
  140.8850  153.4505  134.7698 H   0  0  0  0  0  0  0  0  0  0  0  0
  143.0725  152.9673  135.9115 H   0  0  0  0  0  0  0  0  0  0  0  0
  145.2410  154.4790  137.0960 H   0  0  0  0  0  0  0  0  0  0  0  0
  146.4520  154.4806  134.3754 H   0  0  0  0  0  0  0  0  0  0  0  0
  146.7488  155.9292  135.4156 H   0  0  0  0  0  0  0  0  0  0  0  0
  148.2844  153.6260  135.4112 H   0  0  0  0  0  0  0  0  0  0  0  0
  148.1796  154.8308  136.7610 H   0  0  0  0  0  0  0  0  0  0  0  0
  150.7450  153.9794  139.1197 H   0  0  0  0  0  0  0  0  0  0  0  0
  149.8083  152.9082  138.0234 H   0  0  0  0  0  0  0  0  0  0  0  0
  149.5058  154.6789  138.0234 H   0  0  0  0  0  0  0  0  0  0  0  0
  148.5781  152.0101  141.1799 H   0  0  0  0  0  0  0  0  0  0  0  0
  147.6573  151.7269  139.6637 H   0  0  0  0  0  0  0  0  0  0  0  0
  149.4490  151.5986  139.6637 H   0  0  0  0  0  0  0  0  0  0  0  0
  148.7901  153.8230  141.9029 H   0  0  0  0  0  0  0  0  0  0  0  0
  150.1657  154.5762  141.0271 H   0  0  0  0  0  0  0  0  0  0  0  0
  148.5561  155.3737  141.0271 H   0  0  0  0  0  0  0  0  0  0  0  0
  144.4867  156.9617  134.8879 H   0  0  0  0  0  0  0  0  0  0  0  0
  1  2  2  0
  2  3  1  0
  3  4  1  0
  4  5  2  0
  4  6  1  0
  6  7  1  0
  7  8  1  0
  8  9  1  0
  8 10  2  0
  7 11  2  0
 11 12  1  0
 12 13  2  0
 13 14  1  0
 14 15  2  0
 15 16  1  0
 16 17  1  0
 17 18  1  0
 18 19  1  0
 19 20  1  0
 20 21  2  0
 20 22  1  0
 22 23  1  0
 23 24  1  0
 23 25  1  0
 23 26  1  0
 15 27  1  0
 27 28  2  0
  2 29  1  0
 29 30  2  0
 29 31  1  0
 28  6  1  0
 28 12  1  0
  1 32  1  0
  1 33  1  0
  9 34  1  0
 11 35  1  0
 13 36  1  0
 14 37  1  0
 16 38  1  0
 17 39  1  0
 17 40  1  0
 18 41  1  0
 18 42  1  0
 24 43  1  0
 24 44  1  0
 24 45  1  0
 25 46  1  0
 25 47  1  0
 25 48  1  0
 26 49  1  0
 26 50  1  0
 26 51  1  0
 27 52  1  0
M  CHG  3   9  -1  19  -1  31  -1
M  END
>  <UniqueID>  (34) 
34

>  <SMILES>  (34) 
C=C(OC(=O)n1c(C([NH-])=O)cc2ccc(NCC[N-]C(=O)OC(C)(C)C)cc21)C(=O)[O-]

>  <Energy>  (34) 
85.09544555032856

>  <Genealogy>  (34) 
C=C(OC(=O)n1c(C([NH-])=O)cc2ccc(NCC[N-]C(=O)OC(C)(C)C)cc21)C(=O)[O-] (protonated)
C=C(OC(=O)n1c(C([NH-])=O)cc2ccc(NCC[N-]C(=O)OC(C)(C)C)cc21)C(=O)[O-] (3D coordinates assigned)
C=C(OC(=O)n1c(C([NH-])=O)cc2ccc(NCC[N-]C(=O)OC(C)(C)C)cc21)C(=O)[O-] (optimized conformer: 85.09544555032856 kcal/mol)

>  <smiles>  (34) 
C=C(OC(=O)n1c(C(N)=O)cc2ccc(NCCNC(=O)OC(C)(C)C)cc21)C(=O)O

>  <score_type>  (34) 
oracle

>  <origin>  (34) 
adg

>  <m_score__min__energy>  (34) 
-7.7999999999999998

>  <m_primary>  (34) 
energy

$$$$
34:0
     RDKit          3D

 43 44  0  0  0  0  0  0  0  0999 V2000
  139.9540  156.6120  133.0790 C   0  0  0  0  0  0  0  0  0  0  0  0
  140.3690  157.9620  133.5030 N   0  0  1  0  0  0  0  0  0  0  0  0
  139.3350  158.9820  133.2030 C   0  0  0  0  0  0  0  0  0  0  0  0
  139.5230  159.6490  131.8280 C   0  0  0  0  0  0  0  0  0  0  0  0
  140.5560  159.0330  131.1050 O   0  0  0  0  0  0  0  0  0  0  0  0
  140.6370  157.9560  134.9310 C   0  0  0  0  0  0  0  0  0  0  0  0
  139.7260  158.1300  135.7300 O   0  0  0  0  0  0  0  0  0  0  0  0
  142.0330  157.7840  135.4580 C   0  0  0  0  0  0  0  0  0  0  0  0
  142.8020  157.0760  134.4920 O   0  0  0  0  0  0  0  0  0  0  0  0
  143.2960  157.6700  133.3280 C   0  0  0  0  0  0  0  0  0  0  0  0
  142.7160  157.4830  132.2230 O   0  0  0  0  0  0  0  0  0  0  0  0
  144.4570  158.5120  133.3990 N   0  0  0  0  0  0  0  0  0  0  0  0
  144.5040  159.8630  133.5840 C   0  0  0  0  0  0  0  0  0  0  0  0
  143.3480  160.7830  133.5790 C   0  0  0  0  0  0  0  0  0  0  0  0
  142.0290  160.3040  133.3280 N   0  0  0  0  0  0  0  0  0  0  0  0
  143.5340  162.0190  133.7400 O   0  0  0  0  0  0  0  0  0  0  0  0
  145.8250  160.2970  133.6780 C   0  0  0  0  0  0  0  0  0  0  0  0
  146.5920  159.1640  133.5320 C   0  0  0  0  0  0  0  0  0  0  0  0
  147.9750  159.0110  133.5570 C   0  0  0  0  0  0  0  0  0  0  0  0
  148.4980  157.7160  133.4130 C   0  0  0  0  0  0  0  0  0  0  0  0
  147.6380  156.6000  133.2410 C   0  0  0  0  0  0  0  0  0  0  0  0
  148.1980  155.2030  133.1560 C   0  0  0  0  0  0  0  0  0  0  0  0
  149.4740  155.2570  132.6250 F   0  0  0  0  0  0  0  0  0  0  0  0
  148.2580  154.6340  134.4150 F   0  0  0  0  0  0  0  0  0  0  0  0
  147.4100  154.3970  132.3530 F   0  0  0  0  0  0  0  0  0  0  0  0
  146.2370  156.7960  133.2410 C   0  0  0  0  0  0  0  0  0  0  0  0
  145.7430  158.1010  133.3650 C   0  0  0  0  0  0  0  0  0  0  0  0
  139.7632  155.9913  133.9669 H   0  0  0  0  0  0  0  0  0  0  0  0
  139.0361  156.6827  132.4769 H   0  0  0  0  0  0  0  0  0  0  0  0
  140.7531  156.1549  132.4769 H   0  0  0  0  0  0  0  0  0  0  0  0
  141.2490  158.2040  132.9900 H   0  0  0  0  0  0  0  0  0  0  0  0
  138.3482  158.4964  133.2242 H   0  0  0  0  0  0  0  0  0  0  0  0
  139.4232  159.7711  133.9643 H   0  0  0  0  0  0  0  0  0  0  0  0
  138.5862  159.5663  131.2574 H   0  0  0  0  0  0  0  0  0  0  0  0
  139.7879  160.7050  131.9851 H   0  0  0  0  0  0  0  0  0  0  0  0
  141.3850  159.1440  131.6430 H   0  0  0  0  0  0  0  0  0  0  0  0
  142.4843  158.7706  135.6393 H   0  0  0  0  0  0  0  0  0  0  0  0
  142.0099  157.2220  136.4033 H   0  0  0  0  0  0  0  0  0  0  0  0
  141.8720  159.4300  132.7790 H   0  0  0  0  0  0  0  0  0  0  0  0
  146.1792  161.3264  133.8354 H   0  0  0  0  0  0  0  0  0  0  0  0
  148.6386  159.8788  133.6858 H   0  0  0  0  0  0  0  0  0  0  0  0
  149.5873  157.5645  133.4337 H   0  0  0  0  0  0  0  0  0  0  0  0
  145.5503  155.9420  133.1457 H   0  0  0  0  0  0  0  0  0  0  0  0
  1  2  1  0
  2  3  1  0
  3  4  1  0
  4  5  1  0
  2  6  1  0
  6  7  2  0
  6  8  1  0
  8  9  1  0
  9 10  1  0
 10 11  2  0
 10 12  1  0
 12 13  1  0
 13 14  1  0
 14 15  1  0
 14 16  2  0
 13 17  2  0
 17 18  1  0
 18 19  2  0
 19 20  1  0
 20 21  2  0
 21 22  1  0
 22 23  1  0
 22 24  1  0
 22 25  1  0
 21 26  1  0
 26 27  2  0
 27 12  1  0
 27 18  1  0
  1 28  1  0
  1 29  1  0
  1 30  1  0
  2 31  1  6
  3 32  1  0
  3 33  1  0
  4 34  1  0
  4 35  1  0
  5 36  1  0
  8 37  1  0
  8 38  1  0
 15 39  1  0
 17 40  1  0
 19 41  1  0
 20 42  1  0
 26 43  1  0
M  CHG  2   2   1  15  -1
M  END
>  <UniqueID>  (35) 
35

>  <SMILES>  (35) 
C[N@@H+](CCO)C(=O)COC(=O)n1c(C([NH-])=O)cc2ccc(C(F)(F)F)cc21

>  <Energy>  (35) 
78.7154834989342

>  <Genealogy>  (35) 
C[NH+](CCO)C(=O)COC(=O)n1c(C([NH-])=O)cc2ccc(C(F)(F)F)cc21 (protonated)
C[N@@H+](CCO)C(=O)COC(=O)n1c(C([NH-])=O)cc2ccc(C(F)(F)F)cc21 (chirality)
C[N@@H+](CCO)C(=O)COC(=O)n1c(C([NH-])=O)cc2ccc(C(F)(F)F)cc21 (3D coordinates assigned)
C[N@@H+](CCO)C(=O)COC(=O)n1c(C([NH-])=O)cc2ccc(C(F)(F)F)cc21 (optimized conformer: 78.7154834989342 kcal/mol)

>  <smiles>  (35) 
CN(CCO)C(=O)COC(=O)n1c(C(N)=O)cc2ccc(C(F)(F)F)cc21

>  <score_type>  (35) 
oracle

>  <origin>  (35) 
adg

>  <m_score__min__energy>  (35) 
-4.6699999999999999

>  <m_primary>  (35) 
energy

$$$$
35:0
     RDKit          3D

 37 38  0  0  0  0  0  0  0  0999 V2000
  143.4870  160.0420  133.7400 C   0  0  0  0  0  0  0  0  0  0  0  0
  144.8660  160.5420  133.7860 N   0  0  0  0  0  0  0  0  0  0  0  0
  145.1000  161.9420  134.1600 C   0  0  0  0  0  0  0  0  0  0  0  0
  145.9810  159.6680  133.4620 C   0  0  0  0  0  0  0  0  0  0  0  0
  147.2630  160.2080  133.1530 C   0  0  0  0  0  0  0  0  0  0  0  0
  148.3490  159.3720  132.8460 C   0  0  0  0  0  0  0  0  0  0  0  0
  148.1350  157.9990  132.8420 C   0  0  0  0  0  0  0  0  0  0  0  0
  149.0140  156.9650  132.6070 C   0  0  0  0  0  0  0  0  0  0  0  0
  148.2610  155.8010  132.7550 C   0  0  0  0  0  0  0  0  0  0  0  0
  148.8040  154.4410  132.5470 C   0  0  0  0  0  0  0  0  0  0  0  0
  147.9600  153.2950  132.6080 N   0  0  0  0  0  0  0  0  0  0  0  0
  150.0280  154.2920  132.2830 O   0  0  0  0  0  0  0  0  0  0  0  0
  146.9710  156.1070  133.0680 N   0  0  0  0  0  0  0  0  0  0  0  0
  145.9040  155.1960  133.3740 C   0  0  0  0  0  0  0  0  0  0  0  0
  145.3130  154.5910  132.4400 O   0  0  0  0  0  0  0  0  0  0  0  0
  145.4920  154.9580  134.7640 C   0  0  0  0  0  0  0  0  0  0  0  0
  144.3490  154.4830  135.0090 O   0  0  0  0  0  0  0  0  0  0  0  0
  146.3780  155.2510  135.8060 O   0  0  0  0  0  0  0  0  0  0  0  0
  147.7250  154.7870  135.8420 C   0  0  0  0  0  0  0  0  0  0  0  0
  147.8960  153.7580  136.9130 C   0  0  0  0  0  0  0  0  0  0  0  0
  147.0010  152.8940  137.1080 O   0  0  0  0  0  0  0  0  0  0  0  0
  149.0350  153.7600  137.7090 O   0  0  0  0  0  0  0  0  0  0  0  0
  146.9110  157.4550  133.1190 C   0  0  0  0  0  0  0  0  0  0  0  0
  145.8160  158.2590  133.4480 C   0  0  0  0  0  0  0  0  0  0  0  0
  143.1119  159.9060  134.7651 H   0  0  0  0  0  0  0  0  0  0  0  0
  142.8516  160.7670  133.2102 H   0  0  0  0  0  0  0  0  0  0  0  0
  143.4639  159.0783  133.2102 H   0  0  0  0  0  0  0  0  0  0  0  0
  145.1149  162.0311  135.2563 H   0  0  0  0  0  0  0  0  0  0  0  0
  146.0661  162.2740  133.7520 H   0  0  0  0  0  0  0  0  0  0  0  0
  144.2944  162.5701  133.7520 H   0  0  0  0  0  0  0  0  0  0  0  0
  147.4045  161.2988  133.1550 H   0  0  0  0  0  0  0  0  0  0  0  0
  149.3394  159.7916  132.6156 H   0  0  0  0  0  0  0  0  0  0  0  0
  150.0823  157.0413  132.3561 H   0  0  0  0  0  0  0  0  0  0  0  0
  147.0250  153.2910  132.1430 H   0  0  0  0  0  0  0  0  0  0  0  0
  147.9809  154.3426  134.8689 H   0  0  0  0  0  0  0  0  0  0  0  0
  148.3886  155.6376  136.0567 H   0  0  0  0  0  0  0  0  0  0  0  0
  144.8432  157.8071  133.6918 H   0  0  0  0  0  0  0  0  0  0  0  0
  1  2  1  0
  2  3  1  0
  2  4  1  0
  4  5  2  0
  5  6  1  0
  6  7  2  0
  7  8  1  0
  8  9  2  0
  9 10  1  0
 10 11  1  0
 10 12  2  0
  9 13  1  0
 13 14  1  0
 14 15  2  0
 14 16  1  0
 16 17  2  0
 16 18  1  0
 18 19  1  0
 19 20  1  0
 20 21  2  0
 20 22  1  0
 13 23  1  0
 23 24  2  0
 24  4  1  0
 23  7  1  0
  1 25  1  0
  1 26  1  0
  1 27  1  0
  3 28  1  0
  3 29  1  0
  3 30  1  0
  5 31  1  0
  6 32  1  0
  8 33  1  0
 11 34  1  0
 19 35  1  0
 19 36  1  0
 24 37  1  0
M  CHG  2  11  -1  22  -1
M  END
>  <UniqueID>  (36) 
36

>  <SMILES>  (36) 
CN(C)c1ccc2cc(C([NH-])=O)n(C(=O)C(=O)OCC(=O)[O-])c2c1

>  <Energy>  (36) 
75.23431766794532

>  <Genealogy>  (36) 
CN(C)c1ccc2cc(C([NH-])=O)n(C(=O)C(=O)OCC(=O)[O-])c2c1 (protonated)
CN(C)c1ccc2cc(C([NH-])=O)n(C(=O)C(=O)OCC(=O)[O-])c2c1 (3D coordinates assigned)
CN(C)c1ccc2cc(C([NH-])=O)n(C(=O)C(=O)OCC(=O)[O-])c2c1 (optimized conformer: 75.23431766794532 kcal/mol)

>  <smiles>  (36) 
CN(C)c1ccc2cc(C(N)=O)n(C(=O)C(=O)OCC(=O)O)c2c1

>  <score_type>  (36) 
oracle

>  <origin>  (36) 
adg

>  <m_score__min__energy>  (36) 
-6.1699999999999999

>  <m_primary>  (36) 
energy

$$$$
36:0
     RDKit          3D

 35 36  0  0  0  0  0  0  0  0999 V2000
  144.9660  160.2350  133.5720 C   0  0  0  0  0  0  0  0  0  0  0  0
  146.0500  159.2160  133.3830 C   0  0  0  0  0  0  0  0  0  0  0  0
  147.4050  159.6250  133.3150 C   0  0  0  0  0  0  0  0  0  0  0  0
  148.4330  158.6760  133.1690 C   0  0  0  0  0  0  0  0  0  0  0  0
  148.0750  157.3320  133.1120 C   0  0  0  0  0  0  0  0  0  0  0  0
  148.8570  156.2080  132.9560 C   0  0  0  0  0  0  0  0  0  0  0  0
  147.9660  155.1330  132.9600 C   0  0  0  0  0  0  0  0  0  0  0  0
  148.3590  153.7080  132.8520 C   0  0  0  0  0  0  0  0  0  0  0  0
  147.9090  152.7440  133.8070 N   0  0  0  0  0  0  0  0  0  0  0  0
  149.0920  153.3280  131.9020 O   0  0  0  0  0  0  0  0  0  0  0  0
  146.6910  155.5800  133.1260 N   0  0  0  0  0  0  0  0  0  0  0  0
  145.4850  154.8050  133.1210 C   0  0  0  0  0  0  0  0  0  0  0  0
  144.9020  154.5820  132.0250 O   0  0  0  0  0  0  0  0  0  0  0  0
  144.9390  154.2840  134.3500 N   0  0  0  0  0  0  0  0  0  0  0  0
  143.9310  153.2210  134.3000 C   0  0  0  0  0  0  0  0  0  0  0  0
  145.3490  154.8590  135.6380 C   0  0  0  0  0  0  0  0  0  0  0  0
  146.6350  154.2410  136.0860 C   0  0  0  0  0  0  0  0  0  0  0  0
  147.7300  154.8120  135.8480 O   0  0  0  0  0  0  0  0  0  0  0  0
  146.6250  153.0080  136.7260 O   0  0  0  0  0  0  0  0  0  0  0  0
  146.7710  156.9230  133.2050 C   0  0  0  0  0  0  0  0  0  0  0  0
  145.7260  157.8430  133.3370 C   0  0  0  0  0  0  0  0  0  0  0  0
  144.7962  160.3946  134.6470 H   0  0  0  0  0  0  0  0  0  0  0  0
  145.2685  161.1833  133.1038 H   0  0  0  0  0  0  0  0  0  0  0  0
  144.0382  159.8745  133.1038 H   0  0  0  0  0  0  0  0  0  0  0  0
  147.6553  160.6944  133.3770 H   0  0  0  0  0  0  0  0  0  0  0  0
  149.4863  158.9861  133.1020 H   0  0  0  0  0  0  0  0  0  0  0  0
  149.9512  156.1665  132.8506 H   0  0  0  0  0  0  0  0  0  0  0  0
  147.3540  153.0210  134.6470 H   0  0  0  0  0  0  0  0  0  0  0  0
  148.1700  151.7400  133.6970 H   0  0  0  0  0  0  0  0  0  0  0  0
  143.6545  152.9294  135.3240 H   0  0  0  0  0  0  0  0  0  0  0  0
  143.0393  153.5859  133.7693 H   0  0  0  0  0  0  0  0  0  0  0  0
  144.3427  152.3499  133.7693 H   0  0  0  0  0  0  0  0  0  0  0  0
  145.4859  155.9446  135.5255 H   0  0  0  0  0  0  0  0  0  0  0  0
  144.5702  154.6578  136.3883 H   0  0  0  0  0  0  0  0  0  0  0  0
  144.6810  157.5061  133.4031 H   0  0  0  0  0  0  0  0  0  0  0  0
  1  2  1  0
  2  3  2  0
  3  4  1  0
  4  5  2  0
  5  6  1  0
  6  7  2  0
  7  8  1  0
  8  9  1  0
  8 10  2  0
  7 11  1  0
 11 12  1  0
 12 13  2  0
 12 14  1  0
 14 15  1  0
 14 16  1  0
 16 17  1  0
 17 18  2  0
 17 19  1  0
 11 20  1  0
 20 21  2  0
 21  2  1  0
 20  5  1  0
  1 22  1  0
  1 23  1  0
  1 24  1  0
  3 25  1  0
  4 26  1  0
  6 27  1  0
  9 28  1  0
  9 29  1  0
 15 30  1  0
 15 31  1  0
 15 32  1  0
 16 33  1  0
 16 34  1  0
 21 35  1  0
M  CHG  1  19  -1
M  END
>  <UniqueID>  (37) 
37

>  <SMILES>  (37) 
Cc1ccc2cc(C(N)=O)n(C(=O)N(C)CC(=O)[O-])c2c1

>  <Energy>  (37) 
70.59987211773

>  <Genealogy>  (37) 
Cc1ccc2cc(C(N)=O)n(C(=O)N(C)CC(=O)[O-])c2c1 (protonated)
Cc1ccc2cc(C(N)=O)n(C(=O)N(C)CC(=O)[O-])c2c1 (3D coordinates assigned)
Cc1ccc2cc(C(N)=O)n(C(=O)N(C)CC(=O)[O-])c2c1 (optimized conformer: 70.59987211773 kcal/mol)

>  <smiles>  (37) 
Cc1ccc2cc(C(N)=O)n(C(=O)N(C)CC(=O)O)c2c1

>  <score_type>  (37) 
oracle

>  <origin>  (37) 
adg

>  <m_score__min__energy>  (37) 
-7.3300000000000001

>  <m_primary>  (37) 
energy

$$$$
37:0
     RDKit          3D

 39 40  0  0  0  0  0  0  0  0999 V2000
  138.5290  159.2270  131.9500 C   0  0  0  0  0  0  0  0  0  0  0  0
  139.9670  158.6880  131.9040 C   0  0  1  0  0  0  0  0  0  0  0  0
  140.8800  159.7450  132.0690 O   0  0  0  0  0  0  0  0  0  0  0  0
  140.2010  157.5830  132.9590 C   0  0  1  0  0  0  0  0  0  0  0  0
  141.5940  157.1400  132.9050 N   0  0  0  0  0  0  0  0  0  0  0  0
  142.5600  157.1400  133.9680 C   0  0  0  0  0  0  0  0  0  0  0  0
  142.8540  156.0370  134.4990 O   0  0  0  0  0  0  0  0  0  0  0  0
  143.2200  158.3660  134.4750 C   0  0  0  0  0  0  0  0  0  0  0  0
  142.7150  159.0330  135.4160 O   0  0  0  0  0  0  0  0  0  0  0  0
  144.4510  158.8140  133.8880 N   0  0  0  0  0  0  0  0  0  0  0  0
  144.8230  160.0950  133.6110 C   0  0  0  0  0  0  0  0  0  0  0  0
  143.9650  161.2920  133.7390 C   0  0  0  0  0  0  0  0  0  0  0  0
  142.5530  161.2070  133.5670 N   0  0  0  0  0  0  0  0  0  0  0  0
  144.4890  162.4130  133.9760 O   0  0  0  0  0  0  0  0  0  0  0  0
  146.1340  160.1290  133.1360 C   0  0  0  0  0  0  0  0  0  0  0  0
  146.5550  158.8170  133.1340 C   0  0  0  0  0  0  0  0  0  0  0  0
  147.7880  158.2730  132.7880 C   0  0  0  0  0  0  0  0  0  0  0  0
  147.9560  156.8830  132.9240 C   0  0  0  0  0  0  0  0  0  0  0  0
  146.8920  156.0650  133.3910 C   0  0  0  0  0  0  0  0  0  0  0  0
  147.0880  154.5830  133.5850 C   0  0  0  0  0  0  0  0  0  0  0  0
  146.0000  153.9080  133.0660 F   0  0  0  0  0  0  0  0  0  0  0  0
  147.2140  154.2700  134.9280 F   0  0  0  0  0  0  0  0  0  0  0  0
  148.2340  154.1630  132.9320 F   0  0  0  0  0  0  0  0  0  0  0  0
  145.6640  156.6630  133.7550 C   0  0  0  0  0  0  0  0  0  0  0  0
  145.5220  158.0450  133.5940 C   0  0  0  0  0  0  0  0  0  0  0  0
  139.8960  158.1150  134.3330 C   0  0  0  0  0  0  0  0  0  0  0  0
  139.2580  157.4080  135.1580 O   0  0  0  0  0  0  0  0  0  0  0  0
  140.2730  159.4070  134.6860 O   0  0  0  0  0  0  0  0  0  0  0  0
  138.2149  159.3447  132.9976 H   0  0  0  0  0  0  0  0  0  0  0  0
  138.4865  160.2021  131.4427 H   0  0  0  0  0  0  0  0  0  0  0  0
  137.8560  158.5201  131.4427 H   0  0  0  0  0  0  0  0  0  0  0  0
  140.1279  158.2277  130.9180 H   0  0  0  0  0  0  0  0  0  0  0  0
  141.4620  159.5210  132.8420 H   0  0  0  0  0  0  0  0  0  0  0  0
  139.5368  156.7329  132.7440 H   0  0  0  0  0  0  0  0  0  0  0  0
  142.0300  160.3400  133.8250 H   0  0  0  0  0  0  0  0  0  0  0  0
  146.7093  161.0147  132.8285 H   0  0  0  0  0  0  0  0  0  0  0  0
  148.6057  158.9099  132.4197 H   0  0  0  0  0  0  0  0  0  0  0  0
  148.9218  156.4241  132.6659 H   0  0  0  0  0  0  0  0  0  0  0  0
  144.8392  156.0554  134.1556 H   0  0  0  0  0  0  0  0  0  0  0  0
  1  2  1  0
  2  3  1  0
  2  4  1  0
  4  5  1  0
  5  6  1  0
  6  7  2  0
  6  8  1  0
  8  9  2  0
  8 10  1  0
 10 11  1  0
 11 12  1  0
 12 13  1  0
 12 14  2  0
 11 15  2  0
 15 16  1  0
 16 17  2  0
 17 18  1  0
 18 19  2  0
 19 20  1  0
 20 21  1  0
 20 22  1  0
 20 23  1  0
 19 24  1  0
 24 25  2  0
  4 26  1  0
 26 27  2  0
 26 28  1  0
 25 10  1  0
 25 16  1  0
  1 29  1  0
  1 30  1  0
  1 31  1  0
  2 32  1  6
  3 33  1  0
  4 34  1  6
 13 35  1  0
 15 36  1  0
 17 37  1  0
 18 38  1  0
 24 39  1  0
M  CHG  3   5  -1  13  -1  28  -1
M  END
>  <UniqueID>  (38) 
38

>  <SMILES>  (38) 
C[C@@H](O)[C@@H]([N-]C(=O)C(=O)n1c(C([NH-])=O)cc2ccc(C(F)(F)F)cc21)C(=O)[O-]

>  <Energy>  (38) 
77.555726971692

>  <Genealogy>  (38) 
CC(O)C([N-]C(=O)C(=O)n1c(C([NH-])=O)cc2ccc(C(F)(F)F)cc21)C(=O)[O-] (protonated)
C[C@@H](O)[C@@H]([N-]C(=O)C(=O)n1c(C([NH-])=O)cc2ccc(C(F)(F)F)cc21)C(=O)[O-] (chirality)
C[C@@H](O)[C@@H]([N-]C(=O)C(=O)n1c(C([NH-])=O)cc2ccc(C(F)(F)F)cc21)C(=O)[O-] (3D coordinates assigned)
C[C@@H](O)[C@@H]([N-]C(=O)C(=O)n1c(C([NH-])=O)cc2ccc(C(F)(F)F)cc21)C(=O)[O-] (optimized conformer: 77.555726971692 kcal/mol)

>  <smiles>  (38) 
CC(O)C(NC(=O)C(=O)n1c(C(N)=O)cc2ccc(C(F)(F)F)cc21)C(=O)O

>  <score_type>  (38) 
oracle

>  <origin>  (38) 
adg

>  <m_score__min__energy>  (38) 
-6.1100000000000003

>  <m_primary>  (38) 
energy

$$$$
38:0
     RDKit          3D

 38 39  0  0  0  0  0  0  0  0999 V2000
  139.1090  149.2550  132.0470 C   0  0  0  0  0  0  0  0  0  0  0  0
  140.4060  149.9870  132.2270 C   0  0  0  0  0  0  0  0  0  0  0  0
  141.6370  149.2970  132.0940 C   0  0  0  0  0  0  0  0  0  0  0  0
  142.8580  149.9680  132.2870 C   0  0  0  0  0  0  0  0  0  0  0  0
  142.8150  151.3170  132.6310 C   0  0  0  0  0  0  0  0  0  0  0  0
  143.8380  152.2110  132.8490 C   0  0  0  0  0  0  0  0  0  0  0  0
  143.2140  153.4240  133.1400 C   0  0  0  0  0  0  0  0  0  0  0  0
  143.9450  154.6650  133.4790 C   0  0  0  0  0  0  0  0  0  0  0  0
  143.7300  155.8670  132.7450 N   0  0  0  0  0  0  0  0  0  0  0  0
  144.7500  154.6690  134.4490 O   0  0  0  0  0  0  0  0  0  0  0  0
  141.8600  153.2810  133.1090 N   0  0  0  0  0  0  0  0  0  0  0  0
  140.8650  154.3040  133.2660 C   0  0  0  0  0  0  0  0  0  0  0  0
  139.7900  154.2320  132.6130 O   0  0  0  0  0  0  0  0  0  0  0  0
  141.0820  155.4320  134.1820 C   0  0  0  0  0  0  0  0  0  0  0  0
  141.3370  156.5780  133.7200 O   0  0  0  0  0  0  0  0  0  0  0  0
  140.9850  155.2280  135.5610 O   0  0  0  0  0  0  0  0  0  0  0  0
  142.0880  154.8130  136.3580 C   0  0  0  0  0  0  0  0  0  0  0  0
  141.6060  153.9110  137.4550 C   0  0  0  0  0  0  0  0  0  0  0  0
  140.9710  154.4090  138.4220 O   0  0  0  0  0  0  0  0  0  0  0  0
  141.8380  152.4950  137.4380 N   0  0  0  0  0  0  0  0  0  0  0  0
  141.1860  151.5040  138.2920 C   0  0  0  0  0  0  0  0  0  0  0  0
  140.3000  150.6190  137.4730 C   0  0  0  0  0  0  0  0  0  0  0  0
  140.6090  150.3460  136.2830 O   0  0  0  0  0  0  0  0  0  0  0  0
  139.1520  150.0650  138.0260 O   0  0  0  0  0  0  0  0  0  0  0  0
  141.6300  151.9880  132.7910 C   0  0  0  0  0  0  0  0  0  0  0  0
  140.4000  151.3510  132.5890 C   0  0  0  0  0  0  0  0  0  0  0  0
  138.6836  149.0149  133.0326 H   0  0  0  0  0  0  0  0  0  0  0  0
  138.4047  149.8888  131.4882 H   0  0  0  0  0  0  0  0  0  0  0  0
  139.2876  148.3245  131.4882 H   0  0  0  0  0  0  0  0  0  0  0  0
  141.6374  148.2273  131.8376 H   0  0  0  0  0  0  0  0  0  0  0  0
  143.8177  149.4433  132.1698 H   0  0  0  0  0  0  0  0  0  0  0  0
  144.9188  152.0114  132.8034 H   0  0  0  0  0  0  0  0  0  0  0  0
  142.8330  156.0340  132.2390 H   0  0  0  0  0  0  0  0  0  0  0  0
  142.8102  154.2713  135.7296 H   0  0  0  0  0  0  0  0  0  0  0  0
  142.5728  155.6966  136.7986 H   0  0  0  0  0  0  0  0  0  0  0  0
  141.9529  150.8912  138.7884 H   0  0  0  0  0  0  0  0  0  0  0  0
  140.5761  152.0247  139.0449 H   0  0  0  0  0  0  0  0  0  0  0  0
  139.4539  151.8991  132.7092 H   0  0  0  0  0  0  0  0  0  0  0  0
  1  2  1  0
  2  3  2  0
  3  4  1  0
  4  5  2  0
  5  6  1  0
  6  7  2  0
  7  8  1  0
  8  9  1  0
  8 10  2  0
  7 11  1  0
 11 12  1  0
 12 13  2  0
 12 14  1  0
 14 15  2  0
 14 16  1  0
 16 17  1  0
 17 18  1  0
 18 19  2  0
 18 20  1  0
 20 21  1  0
 21 22  1  0
 22 23  2  0
 22 24  1  0
 11 25  1  0
 25 26  2  0
 26  2  1  0
 25  5  1  0
  1 27  1  0
  1 28  1  0
  1 29  1  0
  3 30  1  0
  4 31  1  0
  6 32  1  0
  9 33  1  0
 17 34  1  0
 17 35  1  0
 21 36  1  0
 21 37  1  0
 26 38  1  0
M  CHG  3   9  -1  20  -1  24  -1
M  END
>  <UniqueID>  (39) 
39

>  <SMILES>  (39) 
Cc1ccc2cc(C([NH-])=O)n(C(=O)C(=O)OCC(=O)[N-]CC(=O)[O-])c2c1

>  <Energy>  (39) 
72.68123253530969

>  <Genealogy>  (39) 
Cc1ccc2cc(C([NH-])=O)n(C(=O)C(=O)OCC(=O)[N-]CC(=O)[O-])c2c1 (protonated)
Cc1ccc2cc(C([NH-])=O)n(C(=O)C(=O)OCC(=O)[N-]CC(=O)[O-])c2c1 (3D coordinates assigned)
Cc1ccc2cc(C([NH-])=O)n(C(=O)C(=O)OCC(=O)[N-]CC(=O)[O-])c2c1 (optimized conformer: 72.68123253530969 kcal/mol)

>  <smiles>  (39) 
Cc1ccc2cc(C(N)=O)n(C(=O)C(=O)OCC(=O)NCC(=O)O)c2c1

>  <score_type>  (39) 
oracle

>  <origin>  (39) 
adg

>  <m_score__min__energy>  (39) 
-6.8799999999999999

>  <m_primary>  (39) 
energy

$$$$
39:0
     RDKit          3D

 44 46  0  0  0  0  0  0  0  0999 V2000
  138.4160  158.0300  131.2510 N   0  0  0  0  0  0  0  0  0  0  0  0
  139.5860  158.6630  131.7690 C   0  0  0  0  0  0  0  0  0  0  0  0
  140.2300  159.4630  131.0400 O   0  0  0  0  0  0  0  0  0  0  0  0
  140.0180  158.4470  133.1650 C   0  0  0  0  0  0  0  0  0  0  0  0
  140.3970  159.4790  134.0170 C   0  0  0  0  0  0  0  0  0  0  0  0
  140.6720  158.8740  135.2210 C   0  0  0  0  0  0  0  0  0  0  0  0
  141.1220  159.4280  136.4160 C   0  0  0  0  0  0  0  0  0  0  0  0
  141.3750  158.5590  137.4910 C   0  0  0  0  0  0  0  0  0  0  0  0
  141.1680  157.1630  137.3590 C   0  0  0  0  0  0  0  0  0  0  0  0
  141.5060  156.2350  138.4980 C   0  0  0  0  0  0  0  0  0  0  0  0
  142.0670  156.9380  139.5520 F   0  0  0  0  0  0  0  0  0  0  0  0
  142.4100  155.2850  138.0600 F   0  0  0  0  0  0  0  0  0  0  0  0
  140.3690  155.5960  138.9630 F   0  0  0  0  0  0  0  0  0  0  0  0
  140.7360  156.6360  136.1200 C   0  0  0  0  0  0  0  0  0  0  0  0
  140.4700  157.5260  135.0710 C   0  0  0  0  0  0  0  0  0  0  0  0
  140.0690  157.2470  133.8090 N   0  0  0  0  0  0  0  0  0  0  0  0
  139.8760  155.9450  133.2320 C   0  0  0  0  0  0  0  0  0  0  0  0
  139.1300  155.8000  132.2260 O   0  0  0  0  0  0  0  0  0  0  0  0
  140.5180  154.8370  133.7950 O   0  0  0  0  0  0  0  0  0  0  0  0
  141.3440  153.9560  133.0410 C   0  0  0  0  0  0  0  0  0  0  0  0
  141.1430  152.5020  133.5190 C   0  0  0  0  0  0  0  0  0  0  0  0
  141.2140  151.4800  132.4490 N   0  0  0  0  0  0  0  0  0  0  0  0
  142.2480  150.4520  132.6420 C   0  0  0  0  0  0  0  0  0  0  0  0
  141.6540  149.1280  132.1930 C   0  0  0  0  0  0  0  0  0  0  0  0
  140.1630  149.3090  132.3540 C   0  0  0  0  0  0  0  0  0  0  0  0
  139.9370  150.8000  132.1740 C   0  0  0  0  0  0  0  0  0  0  0  0
  138.1500  158.1580  130.2500 H   0  0  0  0  0  0  0  0  0  0  0  0
  137.7720  157.4940  131.8740 H   0  0  0  0  0  0  0  0  0  0  0  0
  140.4628  160.5508  133.7786 H   0  0  0  0  0  0  0  0  0  0  0  0
  141.2749  160.5127  136.5158 H   0  0  0  0  0  0  0  0  0  0  0  0
  141.7379  158.9669  138.4460 H   0  0  0  0  0  0  0  0  0  0  0  0
  140.6115  155.5517  135.9828 H   0  0  0  0  0  0  0  0  0  0  0  0
  141.0774  154.0292  131.9763 H   0  0  0  0  0  0  0  0  0  0  0  0
  142.3972  154.2396  133.1832 H   0  0  0  0  0  0  0  0  0  0  0  0
  141.9227  152.2750  134.2610 H   0  0  0  0  0  0  0  0  0  0  0  0
  140.1239  152.4495  133.9296 H   0  0  0  0  0  0  0  0  0  0  0  0
  143.1351  150.6915  132.0373 H   0  0  0  0  0  0  0  0  0  0  0  0
  142.5585  150.4033  133.6962 H   0  0  0  0  0  0  0  0  0  0  0  0
  141.9098  148.9232  131.1429 H   0  0  0  0  0  0  0  0  0  0  0  0
  142.0378  148.2779  132.7762 H   0  0  0  0  0  0  0  0  0  0  0  0
  139.6175  148.7382  131.5881 H   0  0  0  0  0  0  0  0  0  0  0  0
  139.8013  148.9466  133.3276 H   0  0  0  0  0  0  0  0  0  0  0  0
  139.6152  151.0089  131.1431 H   0  0  0  0  0  0  0  0  0  0  0  0
  139.1536  151.1575  132.8584 H   0  0  0  0  0  0  0  0  0  0  0  0
  1  2  1  0
  2  3  2  0
  2  4  1  0
  4  5  2  0
  5  6  1  0
  6  7  2  0
  7  8  1  0
  8  9  2  0
  9 10  1  0
 10 11  1  0
 10 12  1  0
 10 13  1  0
  9 14  1  0
 14 15  2  0
 15 16  1  0
 16 17  1  0
 17 18  2  0
 17 19  1  0
 19 20  1  0
 20 21  1  0
 21 22  1  0
 22 23  1  0
 23 24  1  0
 24 25  1  0
 25 26  1  0
 16  4  1  0
 26 22  1  0
 15  6  1  0
  1 27  1  0
  1 28  1  0
  5 29  1  0
  7 30  1  0
  8 31  1  0
 14 32  1  0
 20 33  1  0
 20 34  1  0
 21 35  1  0
 21 36  1  0
 23 37  1  0
 23 38  1  0
 24 39  1  0
 24 40  1  0
 25 41  1  0
 25 42  1  0
 26 43  1  0
 26 44  1  0
M  END
>  <UniqueID>  (40) 
40

>  <SMILES>  (40) 
NC(=O)c1cc2ccc(C(F)(F)F)cc2n1C(=O)OCCN1CCCC1

>  <Energy>  (40) 
88.42119691620229

>  <Genealogy>  (40) 
NC(=O)c1cc2ccc(C(F)(F)F)cc2n1C(=O)OCCN1CCCC1 (3D coordinates assigned)
NC(=O)c1cc2ccc(C(F)(F)F)cc2n1C(=O)OCCN1CCCC1 (nonaromatic ring conformer: 88.42119691620229 kcal/mol)

>  <smiles>  (40) 
NC(=O)c1cc2ccc(C(F)(F)F)cc2n1C(=O)OCCN1CCCC1

>  <score_type>  (40) 
oracle

>  <origin>  (40) 
adg

>  <m_score__min__energy>  (40) 
-7.5099999999999998

>  <m_primary>  (40) 
energy

$$$$
40:0
     RDKit          3D

 42 43  0  0  0  0  0  0  0  0999 V2000
  148.8710  153.9940  138.1400 C   0  0  0  0  0  0  0  0  0  0  0  0
  148.3450  152.9780  137.1390 C   0  0  0  0  0  0  0  0  0  0  0  0
  147.0420  153.3570  136.7120 O   0  0  0  0  0  0  0  0  0  0  0  0
  146.8100  154.4780  135.9090 C   0  0  0  0  0  0  0  0  0  0  0  0
  147.7740  155.1640  135.4730 O   0  0  0  0  0  0  0  0  0  0  0  0
  145.4060  154.8900  135.5960 C   0  0  0  0  0  0  0  0  0  0  0  0
  145.2280  155.0940  134.1490 N   0  0  0  0  0  0  0  0  0  0  0  0
  144.3670  154.1900  133.3810 C   0  0  0  0  0  0  0  0  0  0  0  0
  145.9230  156.1550  133.4580 C   0  0  0  0  0  0  0  0  0  0  0  0
  146.9450  155.8950  132.7670 O   0  0  0  0  0  0  0  0  0  0  0  0
  145.4940  157.5180  133.5760 N   0  0  0  0  0  0  0  0  0  0  0  0
  146.2670  158.6360  133.6600 C   0  0  0  0  0  0  0  0  0  0  0  0
  147.7490  158.6400  133.7250 C   0  0  0  0  0  0  0  0  0  0  0  0
  148.4730  157.4880  134.1600 N   0  0  0  0  0  0  0  0  0  0  0  0
  148.3900  159.6720  133.3900 O   0  0  0  0  0  0  0  0  0  0  0  0
  145.4620  159.7730  133.7330 C   0  0  0  0  0  0  0  0  0  0  0  0
  144.1650  159.3060  133.7010 C   0  0  0  0  0  0  0  0  0  0  0  0
  142.9590  159.9970  133.7360 C   0  0  0  0  0  0  0  0  0  0  0  0
  141.7700  159.2510  133.6820 C   0  0  0  0  0  0  0  0  0  0  0  0
  141.8040  157.8330  133.6140 C   0  0  0  0  0  0  0  0  0  0  0  0
  140.5170  157.0540  133.5180 C   0  0  0  0  0  0  0  0  0  0  0  0
  139.8130  157.4000  132.3770 F   0  0  0  0  0  0  0  0  0  0  0  0
  139.7360  157.3220  134.6270 F   0  0  0  0  0  0  0  0  0  0  0  0
  140.7790  155.6970  133.4680 F   0  0  0  0  0  0  0  0  0  0  0  0
  143.0520  157.1700  133.5590 C   0  0  0  0  0  0  0  0  0  0  0  0
  144.2150  157.9420  133.6150 C   0  0  0  0  0  0  0  0  0  0  0  0
  148.6839  153.6326  139.1620 H   0  0  0  0  0  0  0  0  0  0  0  0
  149.9525  154.1294  137.9912 H   0  0  0  0  0  0  0  0  0  0  0  0
  148.3573  154.9552  137.9912 H   0  0  0  0  0  0  0  0  0  0  0  0
  149.0179  152.9388  136.2697 H   0  0  0  0  0  0  0  0  0  0  0  0
  148.2990  151.9874  137.6149 H   0  0  0  0  0  0  0  0  0  0  0  0
  144.7158  154.1041  135.9364 H   0  0  0  0  0  0  0  0  0  0  0  0
  145.1946  155.8377  136.1129 H   0  0  0  0  0  0  0  0  0  0  0  0
  143.7768  153.5704  134.0722 H   0  0  0  0  0  0  0  0  0  0  0  0
  143.6886  154.7800  132.7472 H   0  0  0  0  0  0  0  0  0  0  0  0
  144.9894  153.5412  132.7472 H   0  0  0  0  0  0  0  0  0  0  0  0
  147.9890  156.6360  134.5160 H   0  0  0  0  0  0  0  0  0  0  0  0
  149.5180  157.4990  134.1640 H   0  0  0  0  0  0  0  0  0  0  0  0
  145.7920  160.8201  133.8016 H   0  0  0  0  0  0  0  0  0  0  0  0
  142.9366  161.0947  133.8039 H   0  0  0  0  0  0  0  0  0  0  0  0
  140.8010  159.7715  133.6925 H   0  0  0  0  0  0  0  0  0  0  0  0
  143.1056  156.0746  133.4743 H   0  0  0  0  0  0  0  0  0  0  0  0
  1  2  1  0
  2  3  1  0
  3  4  1  0
  4  5  2  0
  4  6  1  0
  6  7  1  0
  7  8  1  0
  7  9  1  0
  9 10  2  0
  9 11  1  0
 11 12  1  0
 12 13  1  0
 13 14  1  0
 13 15  2  0
 12 16  2  0
 16 17  1  0
 17 18  2  0
 18 19  1  0
 19 20  2  0
 20 21  1  0
 21 22  1  0
 21 23  1  0
 21 24  1  0
 20 25  1  0
 25 26  2  0
 26 11  1  0
 26 17  1  0
  1 27  1  0
  1 28  1  0
  1 29  1  0
  2 30  1  0
  2 31  1  0
  6 32  1  0
  6 33  1  0
  8 34  1  0
  8 35  1  0
  8 36  1  0
 14 37  1  0
 14 38  1  0
 16 39  1  0
 18 40  1  0
 19 41  1  0
 25 42  1  0
M  END
>  <UniqueID>  (41) 
41

>  <SMILES>  (41) 
CCOC(=O)CN(C)C(=O)n1c(C(N)=O)cc2ccc(C(F)(F)F)cc21

>  <Energy>  (41) 
70.73779864113408

>  <Genealogy>  (41) 
CCOC(=O)CN(C)C(=O)n1c(C(N)=O)cc2ccc(C(F)(F)F)cc21 (3D coordinates assigned)
CCOC(=O)CN(C)C(=O)n1c(C(N)=O)cc2ccc(C(F)(F)F)cc21 (optimized conformer: 70.73779864113408 kcal/mol)

>  <smiles>  (41) 
CCOC(=O)CN(C)C(=O)n1c(C(N)=O)cc2ccc(C(F)(F)F)cc21

>  <score_type>  (41) 
oracle

>  <origin>  (41) 
adg

>  <m_score__min__energy>  (41) 
-5.7699999999999996

>  <m_primary>  (41) 
energy

$$$$
41:0
     RDKit          3D

 43 44  0  0  0  0  0  0  0  0999 V2000
  141.2920  158.9970  136.6230 C   0  0  0  0  0  0  0  0  0  0  0  0
  141.1610  158.8440  135.1030 C   0  0  0  0  0  0  0  0  0  0  0  0
  139.7960  158.2640  134.7150 C   0  0  0  0  0  0  0  0  0  0  0  0
  142.2600  158.0220  134.5550 N   0  0  0  0  0  0  0  0  0  0  0  0
  142.1460  156.5600  134.4690 C   0  0  0  0  0  0  0  0  0  0  0  0
  143.4890  158.6490  134.1320 C   0  0  0  0  0  0  0  0  0  0  0  0
  143.6110  160.0630  134.1340 C   0  0  0  0  0  0  0  0  0  0  0  0
  144.8040  160.6820  133.7250 C   0  0  0  0  0  0  0  0  0  0  0  0
  145.8600  159.8680  133.3300 C   0  0  0  0  0  0  0  0  0  0  0  0
  147.1130  160.2040  132.8720 C   0  0  0  0  0  0  0  0  0  0  0  0
  147.7520  158.9920  132.6190 C   0  0  0  0  0  0  0  0  0  0  0  0
  149.1630  158.8890  132.1940 C   0  0  0  0  0  0  0  0  0  0  0  0
  149.7110  157.6160  131.8560 N   0  0  0  0  0  0  0  0  0  0  0  0
  149.8840  159.9160  132.0900 O   0  0  0  0  0  0  0  0  0  0  0  0
  146.9220  157.9470  132.9010 N   0  0  0  0  0  0  0  0  0  0  0  0
  147.1780  156.5440  132.7310 C   0  0  0  0  0  0  0  0  0  0  0  0
  146.9890  156.0010  131.6080 O   0  0  0  0  0  0  0  0  0  0  0  0
  147.6090  155.7820  133.8230 O   0  0  0  0  0  0  0  0  0  0  0  0
  147.6190  154.3560  133.8310 C   0  0  0  0  0  0  0  0  0  0  0  0
  148.6610  153.8110  132.8530 C   0  0  0  0  0  0  0  0  0  0  0  0
  149.5700  154.8150  132.4920 O   0  0  0  0  0  0  0  0  0  0  0  0
  145.7700  158.5010  133.3390 C   0  0  0  0  0  0  0  0  0  0  0  0
  144.5880  157.8570  133.7230 C   0  0  0  0  0  0  0  0  0  0  0  0
  140.6546  158.2527  137.1227 H   0  0  0  0  0  0  0  0  0  0  0  0
  142.3399  158.8399  136.9184 H   0  0  0  0  0  0  0  0  0  0  0  0
  140.9755  160.0082  136.9184 H   0  0  0  0  0  0  0  0  0  0  0  0
  141.2347  159.8485  134.6609 H   0  0  0  0  0  0  0  0  0  0  0  0
  139.2279  158.0226  135.6255 H   0  0  0  0  0  0  0  0  0  0  0  0
  139.2391  159.0032  134.1205 H   0  0  0  0  0  0  0  0  0  0  0  0
  139.9415  157.3500  134.1205 H   0  0  0  0  0  0  0  0  0  0  0  0
  142.1128  156.1345  135.4828 H   0  0  0  0  0  0  0  0  0  0  0  0
  141.2245  156.2952  133.9299 H   0  0  0  0  0  0  0  0  0  0  0  0
  143.0153  156.1555  133.9299 H   0  0  0  0  0  0  0  0  0  0  0  0
  142.7616  160.6815  134.4596 H   0  0  0  0  0  0  0  0  0  0  0  0
  144.8999  161.7778  133.7175 H   0  0  0  0  0  0  0  0  0  0  0  0
  147.5234  161.2153  132.7346 H   0  0  0  0  0  0  0  0  0  0  0  0
  149.0950  156.7830  131.7310 H   0  0  0  0  0  0  0  0  0  0  0  0
  147.8581  154.0034  134.8451 H   0  0  0  0  0  0  0  0  0  0  0  0
  146.6263  153.9963  133.5227 H   0  0  0  0  0  0  0  0  0  0  0  0
  149.2067  152.9835  133.3299 H   0  0  0  0  0  0  0  0  0  0  0  0
  148.1467  153.4555  131.9479 H   0  0  0  0  0  0  0  0  0  0  0  0
  149.0290  155.5890  132.1840 H   0  0  0  0  0  0  0  0  0  0  0  0
  144.5151  156.7595  133.7072 H   0  0  0  0  0  0  0  0  0  0  0  0
  1  2  1  0
  2  3  1  0
  2  4  1  0
  4  5  1  0
  4  6  1  0
  6  7  2  0
  7  8  1  0
  8  9  2  0
  9 10  1  0
 10 11  2  0
 11 12  1  0
 12 13  1  0
 12 14  2  0
 11 15  1  0
 15 16  1  0
 16 17  2  0
 16 18  1  0
 18 19  1  0
 19 20  1  0
 20 21  1  0
 15 22  1  0
 22 23  2  0
 23  6  1  0
 22  9  1  0
  1 24  1  0
  1 25  1  0
  1 26  1  0
  2 27  1  0
  3 28  1  0
  3 29  1  0
  3 30  1  0
  5 31  1  0
  5 32  1  0
  5 33  1  0
  7 34  1  0
  8 35  1  0
 10 36  1  0
 13 37  1  0
 19 38  1  0
 19 39  1  0
 20 40  1  0
 20 41  1  0
 21 42  1  0
 23 43  1  0
M  CHG  1  13  -1
M  END
>  <UniqueID>  (42) 
42

>  <SMILES>  (42) 
CC(C)N(C)c1ccc2cc(C([NH-])=O)n(C(=O)OCCO)c2c1

>  <Energy>  (42) 
77.44590365083909

>  <Genealogy>  (42) 
CC(C)N(C)c1ccc2cc(C([NH-])=O)n(C(=O)OCCO)c2c1 (protonated)
CC(C)N(C)c1ccc2cc(C([NH-])=O)n(C(=O)OCCO)c2c1 (3D coordinates assigned)
CC(C)N(C)c1ccc2cc(C([NH-])=O)n(C(=O)OCCO)c2c1 (optimized conformer: 77.44590365083909 kcal/mol)

>  <smiles>  (42) 
CC(C)N(C)c1ccc2cc(C(N)=O)n(C(=O)OCCO)c2c1

>  <score_type>  (42) 
oracle

>  <origin>  (42) 
adg

>  <m_score__min__energy>  (42) 
-5.6399999999999997

>  <m_primary>  (42) 
energy

$$$$
42:0
     RDKit          3D

 43 45  0  0  0  0  0  0  0  0999 V2000
  150.2890  160.1150  129.3970 C   0  0  0  0  0  0  0  0  0  0  0  0
  149.6760  159.8850  130.7060 N   0  0  0  0  0  0  0  0  0  0  0  0
  150.0100  158.7090  131.5150 C   0  0  0  0  0  0  0  0  0  0  0  0
  148.7290  158.0360  132.0310 C   0  0  0  0  0  0  0  0  0  0  0  0
  147.7490  159.0100  132.5480 N   0  0  0  0  0  0  0  0  0  0  0  0
  146.5140  158.5250  133.1020 C   0  0  0  0  0  0  0  0  0  0  0  0
  145.3540  159.3380  133.0880 C   0  0  0  0  0  0  0  0  0  0  0  0
  144.1380  158.8640  133.6120 C   0  0  0  0  0  0  0  0  0  0  0  0
  144.1160  157.5790  134.1490 C   0  0  0  0  0  0  0  0  0  0  0  0
  143.0720  156.8520  134.6740 C   0  0  0  0  0  0  0  0  0  0  0  0
  143.6190  155.6190  135.0230 C   0  0  0  0  0  0  0  0  0  0  0  0
  142.8470  154.5370  135.6670 C   0  0  0  0  0  0  0  0  0  0  0  0
  143.4970  153.4440  136.3170 N   0  0  0  0  0  0  0  0  0  0  0  0
  141.5880  154.6030  135.6850 O   0  0  0  0  0  0  0  0  0  0  0  0
  144.9450  155.5810  134.7150 N   0  0  0  0  0  0  0  0  0  0  0  0
  145.8280  154.4490  134.7370 C   0  0  0  0  0  0  0  0  0  0  0  0
  145.3780  153.3000  134.4830 O   0  0  0  0  0  0  0  0  0  0  0  0
  147.2560  154.6020  135.1720 C   0  0  0  0  0  0  0  0  0  0  0  0
  147.4350  154.0310  136.5410 C   0  0  0  0  0  0  0  0  0  0  0  0
  148.3790  154.4290  137.2760 O   0  0  0  0  0  0  0  0  0  0  0  0
  146.5870  153.0260  136.9920 O   0  0  0  0  0  0  0  0  0  0  0  0
  145.2350  156.7890  134.1870 C   0  0  0  0  0  0  0  0  0  0  0  0
  146.4530  157.2280  133.6590 C   0  0  0  0  0  0  0  0  0  0  0  0
  148.0070  160.4590  132.5080 C   0  0  0  0  0  0  0  0  0  0  0  0
  148.7210  160.8110  131.2400 C   0  0  0  0  0  0  0  0  0  0  0  0
  148.4920  161.9100  130.6650 O   0  0  0  0  0  0  0  0  0  0  0  0
  151.3110  160.4985  129.5330 H   0  0  0  0  0  0  0  0  0  0  0  0
  150.3239  159.1688  128.8371 H   0  0  0  0  0  0  0  0  0  0  0  0
  149.6928  160.8506  128.8371 H   0  0  0  0  0  0  0  0  0  0  0  0
  150.5734  157.9928  130.8989 H   0  0  0  0  0  0  0  0  0  0  0  0
  150.6185  159.0268  132.3745 H   0  0  0  0  0  0  0  0  0  0  0  0
  148.2674  157.4755  131.2047 H   0  0  0  0  0  0  0  0  0  0  0  0
  149.0110  157.3721  132.8615 H   0  0  0  0  0  0  0  0  0  0  0  0
  145.4049  160.3511  132.6626 H   0  0  0  0  0  0  0  0  0  0  0  0
  143.2326  159.4885  133.5982 H   0  0  0  0  0  0  0  0  0  0  0  0
  142.0274  157.1757  134.7929 H   0  0  0  0  0  0  0  0  0  0  0  0
  142.9290  152.6670  136.7230 H   0  0  0  0  0  0  0  0  0  0  0  0
  144.5270  153.4460  136.4810 H   0  0  0  0  0  0  0  0  0  0  0  0
  147.9111  154.0700  134.4665 H   0  0  0  0  0  0  0  0  0  0  0  0
  147.5168  155.6705  135.1885 H   0  0  0  0  0  0  0  0  0  0  0  0
  147.3415  156.5798  133.6768 H   0  0  0  0  0  0  0  0  0  0  0  0
  147.0512  161.0017  132.5519 H   0  0  0  0  0  0  0  0  0  0  0  0
  148.6324  160.7409  133.3678 H   0  0  0  0  0  0  0  0  0  0  0  0
  1  2  1  0
  2  3  1  0
  3  4  1  0
  4  5  1  0
  5  6  1  0
  6  7  2  0
  7  8  1  0
  8  9  2  0
  9 10  1  0
 10 11  2  0
 11 12  1  0
 12 13  1  0
 12 14  2  0
 11 15  1  0
 15 16  1  0
 16 17  2  0
 16 18  1  0
 18 19  1  0
 19 20  2  0
 19 21  1  0
 15 22  1  0
 22 23  2  0
  5 24  1  0
 24 25  1  0
 25 26  2  0
 25  2  1  0
 23  6  1  0
 22  9  1  0
  1 27  1  0
  1 28  1  0
  1 29  1  0
  3 30  1  0
  3 31  1  0
  4 32  1  0
  4 33  1  0
  7 34  1  0
  8 35  1  0
 10 36  1  0
 13 37  1  0
 13 38  1  0
 18 39  1  0
 18 40  1  0
 23 41  1  0
 24 42  1  0
 24 43  1  0
M  CHG  1  21  -1
M  END
>  <UniqueID>  (43) 
43

>  <SMILES>  (43) 
CN1CCN(c2ccc3cc(C(N)=O)n(C(=O)CC(=O)[O-])c3c2)CC1=O

>  <Energy>  (43) 
86.50788046137129

>  <Genealogy>  (43) 
CN1CCN(c2ccc3cc(C(N)=O)n(C(=O)CC(=O)[O-])c3c2)CC1=O (protonated)
CN1CCN(c2ccc3cc(C(N)=O)n(C(=O)CC(=O)[O-])c3c2)CC1=O (3D coordinates assigned)
CN1CCN(c2ccc3cc(C(N)=O)n(C(=O)CC(=O)[O-])c3c2)CC1=O (nonaromatic ring conformer: 86.50788046137129 kcal/mol)

>  <smiles>  (43) 
CN1CCN(c2ccc3cc(C(N)=O)n(C(=O)CC(=O)O)c3c2)CC1=O

>  <score_type>  (43) 
oracle

>  <origin>  (43) 
adg

>  <m_score__min__energy>  (43) 
-7.5499999999999998

>  <m_primary>  (43) 
energy

$$$$
43:0
     RDKit          3D

 95102  0  0  0  0  0  0  0  0999 V2000
  146.2380  154.4060  135.9670 C   0  0  0  0  0  0  0  0  0  0  0  0
  145.6360  153.3230  136.7370 N   0  0  0  0  0  0  0  0  0  0  0  0
  144.3640  153.3690  137.4070 C   0  0  0  0  0  0  0  0  0  0  0  0
  144.3510  153.2630  138.6620 O   0  0  0  0  0  0  0  0  0  0  0  0
  143.0780  153.5600  136.6960 C   0  0  0  0  0  0  0  0  0  0  0  0
  142.9180  153.1280  135.5250 O   0  0  0  0  0  0  0  0  0  0  0  0
  142.0110  154.2910  137.3210 N   0  0  0  0  0  0  0  0  0  0  0  0
  141.3010  153.9610  138.4330 C   0  0  0  0  0  0  0  0  0  0  0  0
  141.4310  152.6970  139.1900 C   0  0  0  0  0  0  0  0  0  0  0  0
  142.1480  152.6840  140.4190 N   0  0  0  0  0  0  0  0  0  0  0  0
  140.9130  151.6290  138.7640 O   0  0  0  0  0  0  0  0  0  0  0  0
  140.3880  154.9760  138.7450 C   0  0  0  0  0  0  0  0  0  0  0  0
  140.5610  155.9330  137.7700 C   0  0  0  0  0  0  0  0  0  0  0  0
  139.9220  157.1480  137.5710 C   0  0  0  0  0  0  0  0  0  0  0  0
  140.3120  157.9300  136.4670 C   0  0  0  0  0  0  0  0  0  0  0  0
  141.3290  157.4920  135.5880 C   0  0  0  0  0  0  0  0  0  0  0  0
  141.6360  158.2510  134.3970 N   0  0  0  0  0  0  0  0  0  0  0  0
  142.0500  159.6540  134.4890 C   0  0  0  0  0  0  0  0  0  0  0  0
  143.5940  159.7600  134.4970 C   0  0  0  0  0  0  0  0  0  0  0  0
  144.2990  158.4070  134.1530 C   0  0  0  0  0  0  0  0  0  0  0  0
  145.7790  158.5740  133.9740 N   0  0  0  0  0  0  0  0  0  0  0  0
  146.1030  158.8290  132.5450 C   0  0  0  0  0  0  0  0  0  0  0  0
  147.5900  158.6240  132.1780 C   0  0  0  0  0  0  0  0  0  0  0  0
  148.1120  157.3250  132.6300 N   0  0  0  0  0  0  0  0  0  0  0  0
  147.4610  156.2030  131.9100 C   0  0  0  0  0  0  0  0  0  0  0  0
  147.7900  154.8510  132.4750 C   0  0  0  0  0  0  0  0  0  0  0  0
  146.4030  154.4750  132.8040 N   0  0  0  0  0  0  0  0  0  0  0  0
  145.7110  153.2280  132.8370 C   0  0  0  0  0  0  0  0  0  0  0  0
  144.3450  153.2020  133.1830 C   0  0  0  0  0  0  0  0  0  0  0  0
  143.6440  152.0020  133.0520 C   0  0  0  0  0  0  0  0  0  0  0  0
  144.2770  150.8640  132.6090 C   0  0  0  0  0  0  0  0  0  0  0  0
  145.6300  150.8520  132.2710 C   0  0  0  0  0  0  0  0  0  0  0  0
  146.3510  152.0500  132.3860 C   0  0  0  0  0  0  0  0  0  0  0  0
  147.6590  152.0830  132.0180 F   0  0  0  0  0  0  0  0  0  0  0  0
  143.2550  149.8730  132.3850 C   0  0  0  0  0  0  0  0  0  0  0  0
  143.4510  148.7170  131.9170 O   0  0  0  0  0  0  0  0  0  0  0  0
  141.9680  150.4200  132.6790 N   0  0  0  0  0  0  0  0  0  0  0  0
  140.7180  149.9890  132.0470 C   0  0  1  0  0  0  0  0  0  0  0  0
  140.4150  150.8570  130.8130 C   0  0  0  0  0  0  0  0  0  0  0  0
  139.1050  150.4260  130.1630 C   0  0  0  0  0  0  0  0  0  0  0  0
  139.1360  148.9590  129.8250 C   0  0  0  0  0  0  0  0  0  0  0  0
  138.4590  148.5510  128.8450 O   0  0  0  0  0  0  0  0  0  0  0  0
  139.8900  148.0260  130.6320 N   0  0  0  0  0  0  0  0  0  0  0  0
  139.7510  146.6070  130.4170 C   0  0  0  0  0  0  0  0  0  0  0  0
  138.8310  146.1600  129.6850 O   0  0  0  0  0  0  0  0  0  0  0  0
  140.6190  145.7110  131.0290 O   0  0  0  0  0  0  0  0  0  0  0  0
  140.7540  148.5270  131.6760 C   0  0  0  0  0  0  0  0  0  0  0  0
  141.4600  147.7370  132.3590 O   0  0  0  0  0  0  0  0  0  0  0  0
  142.1650  151.7910  133.1650 C   0  0  0  0  0  0  0  0  0  0  0  0
  146.0820  155.8520  132.3850 C   0  0  0  0  0  0  0  0  0  0  0  0
  147.9410  157.2460  134.0900 C   0  0  0  0  0  0  0  0  0  0  0  0
  146.4700  157.3690  134.5110 C   0  0  0  0  0  0  0  0  0  0  0  0
  143.5830  157.7840  132.9130 C   0  0  0  0  0  0  0  0  0  0  0  0
  142.0780  157.5450  133.1820 C   0  0  0  0  0  0  0  0  0  0  0  0
  141.9730  156.2580  135.8430 C   0  0  0  0  0  0  0  0  0  0  0  0
  141.5490  155.4960  136.9300 C   0  0  0  0  0  0  0  0  0  0  0  0
  146.6553  155.1567  136.6543 H   0  0  0  0  0  0  0  0  0  0  0  0
  147.0414  154.0026  135.3330 H   0  0  0  0  0  0  0  0  0  0  0  0
  145.4713  154.8754  135.3330 H   0  0  0  0  0  0  0  0  0  0  0  0
  143.1890  152.8090  140.4330 H   0  0  0  0  0  0  0  0  0  0  0  0
  139.6830  155.0031  139.5889 H   0  0  0  0  0  0  0  0  0  0  0  0
  139.1329  157.4909  138.2563 H   0  0  0  0  0  0  0  0  0  0  0  0
  139.8181  158.8960  136.2857 H   0  0  0  0  0  0  0  0  0  0  0  0
  141.6530  160.2067  133.6248 H   0  0  0  0  0  0  0  0  0  0  0  0
  141.6575  160.0819  135.4233 H   0  0  0  0  0  0  0  0  0  0  0  0
  143.8979  160.5127  133.7547 H   0  0  0  0  0  0  0  0  0  0  0  0
  143.9001  160.0420  135.5152 H   0  0  0  0  0  0  0  0  0  0  0  0
  144.2051  157.7057  134.9952 H   0  0  0  0  0  0  0  0  0  0  0  0
  145.4998  158.1459  131.9289 H   0  0  0  0  0  0  0  0  0  0  0  0
  145.8782  159.8894  132.3579 H   0  0  0  0  0  0  0  0  0  0  0  0
  147.6942  158.6840  131.0846 H   0  0  0  0  0  0  0  0  0  0  0  0
  148.1690  159.4097  132.6853 H   0  0  0  0  0  0  0  0  0  0  0  0
  147.6884  156.5318  130.8852 H   0  0  0  0  0  0  0  0  0  0  0  0
  148.2465  154.1804  131.7321 H   0  0  0  0  0  0  0  0  0  0  0  0
  148.5251  154.8159  133.2925 H   0  0  0  0  0  0  0  0  0  0  0  0
  143.8415  154.1090  133.5489 H   0  0  0  0  0  0  0  0  0  0  0  0
  146.1181  149.9293  131.9240 H   0  0  0  0  0  0  0  0  0  0  0  0
  139.9090  150.1209  132.7806 H   0  0  0  0  0  0  0  0  0  0  0  0
  140.3362  151.9098  131.1220 H   0  0  0  0  0  0  0  0  0  0  0  0
  141.2298  150.7345  130.0843 H   0  0  0  0  0  0  0  0  0  0  0  0
  138.2757  150.6186  130.8596 H   0  0  0  0  0  0  0  0  0  0  0  0
  138.9650  150.9999  129.2350 H   0  0  0  0  0  0  0  0  0  0  0  0
  141.6176  152.5110  132.5389 H   0  0  0  0  0  0  0  0  0  0  0  0
  141.7919  151.9366  134.1895 H   0  0  0  0  0  0  0  0  0  0  0  0
  145.3343  155.8866  131.5790 H   0  0  0  0  0  0  0  0  0  0  0  0
  145.6307  156.5119  133.1405 H   0  0  0  0  0  0  0  0  0  0  0  0
  148.3295  156.2782  134.4399 H   0  0  0  0  0  0  0  0  0  0  0  0
  148.4913  158.0857  134.5395 H   0  0  0  0  0  0  0  0  0  0  0  0
  145.9338  156.4769  134.1552 H   0  0  0  0  0  0  0  0  0  0  0  0
  146.4621  157.4628  135.6070 H   0  0  0  0  0  0  0  0  0  0  0  0
  143.6881  158.4692  132.0590 H   0  0  0  0  0  0  0  0  0  0  0  0
  144.0518  156.8123  132.6984 H   0  0  0  0  0  0  0  0  0  0  0  0
  141.4972  157.9113  132.3227 H   0  0  0  0  0  0  0  0  0  0  0  0
  141.9168  156.4666  133.3273 H   0  0  0  0  0  0  0  0  0  0  0  0
  142.7912  155.9076  135.1967 H   0  0  0  0  0  0  0  0  0  0  0  0
  1  2  1  0
  2  3  1  0
  3  4  2  0
  3  5  1  0
  5  6  2  0
  5  7  1  0
  7  8  1  0
  8  9  1  0
  9 10  1  0
  9 11  2  0
  8 12  2  0
 12 13  1  0
 13 14  2  0
 14 15  1  0
 15 16  2  0
 16 17  1  0
 17 18  1  0
 18 19  1  0
 19 20  1  0
 20 21  1  0
 21 22  1  0
 22 23  1  0
 23 24  1  0
 24 25  1  0
 25 26  1  0
 26 27  1  0
 27 28  1  0
 28 29  2  0
 29 30  1  0
 30 31  2  0
 31 32  1  0
 32 33  2  0
 33 34  1  0
 31 35  1  0
 35 36  2  0
 35 37  1  0
 37 38  1  0
 38 39  1  0
 39 40  1  0
 40 41  1  0
 41 42  2  0
 41 43  1  0
 43 44  1  0
 44 45  2  0
 44 46  1  0
 43 47  1  0
 47 48  2  0
 37 49  1  0
 27 50  1  0
 24 51  1  0
 51 52  1  0
 20 53  1  0
 53 54  1  0
 16 55  1  0
 55 56  2  0
 56  7  1  0
 56 13  1  0
 54 17  1  0
 52 21  1  0
 50 25  1  0
 33 28  1  0
 47 38  1  0
 49 30  1  0
  1 57  1  0
  1 58  1  0
  1 59  1  0
 10 60  1  0
 12 61  1  0
 14 62  1  0
 15 63  1  0
 18 64  1  0
 18 65  1  0
 19 66  1  0
 19 67  1  0
 20 68  1  0
 22 69  1  0
 22 70  1  0
 23 71  1  0
 23 72  1  0
 25 73  1  0
 26 74  1  0
 26 75  1  0
 29 76  1  0
 32 77  1  0
 38 78  1  1
 39 79  1  0
 39 80  1  0
 40 81  1  0
 40 82  1  0
 49 83  1  0
 49 84  1  0
 50 85  1  0
 50 86  1  0
 51 87  1  0
 51 88  1  0
 52 89  1  0
 52 90  1  0
 53 91  1  0
 53 92  1  0
 54 93  1  0
 54 94  1  0
 55 95  1  0
M  CHG  3   2  -1  10  -1  46  -1
M  END
>  <UniqueID>  (44) 
44

>  <SMILES>  (44) 
C[N-]C(=O)C(=O)n1c(C([NH-])=O)cc2ccc(N3CCC(N4CCN(C5CN(c6cc7c(cc6F)C(=O)N([C@H]6CCC(=O)N(C(=O)[O-])C6=O)C7)C5)CC4)CC3)cc21

>  <Energy>  (44) 
244.8813931626955

>  <Genealogy>  (44) 
C[N-]C(=O)C(=O)n1c(C([NH-])=O)cc2ccc(N3CCC(N4CCN(C5CN(c6cc7c(cc6F)C(=O)N(C6CCC(=O)N(C(=O)[O-])C6=O)C7)C5)CC4)CC3)cc21 (protonated)
C[N-]C(=O)C(=O)n1c(C([NH-])=O)cc2ccc(N3CCC(N4CCN(C5CN(c6cc7c(cc6F)C(=O)N([C@H]6CCC(=O)N(C(=O)[O-])C6=O)C7)C5)CC4)CC3)cc21 (chirality)
C[N-]C(=O)C(=O)n1c(C([NH-])=O)cc2ccc(N3CCC(N4CCN(C5CN(c6cc7c(cc6F)C(=O)N([C@H]6CCC(=O)N(C(=O)[O-])C6=O)C7)C5)CC4)CC3)cc21 (3D coordinates assigned)
C[N-]C(=O)C(=O)n1c(C([NH-])=O)cc2ccc(N3CCC(N4CCN(C5CN(c6cc7c(cc6F)C(=O)N([C@H]6CCC(=O)N(C(=O)[O-])C6=O)C7)C5)CC4)CC3)cc21 (nonaromatic ring conformer: 244.8813931626955 kcal/mol)

>  <smiles>  (44) 
CNC(=O)C(=O)n1c(C(N)=O)cc2ccc(N3CCC(N4CCN(C5CN(c6cc7c(cc6F)C(=O)N(C6CCC(=O)N(C(=O)O)C6=O)C7)C5)CC4)CC3)cc21

>  <score_type>  (44) 
oracle

>  <origin>  (44) 
adg

>  <m_score__min__energy>  (44) 
-9.6699999999999999

>  <m_primary>  (44) 
energy

$$$$
44:0
     RDKit          3D

 37 39  0  0  0  0  0  0  0  0999 V2000
  149.4970  151.2990  132.3830 C   0  0  0  0  0  0  0  0  0  0  0  0
  149.1180  152.7010  132.4960 N   0  0  0  0  0  0  0  0  0  0  0  0
  147.8970  153.1610  132.8250 C   0  0  0  0  0  0  0  0  0  0  0  0
  147.9610  154.5430  132.8900 C   0  0  0  0  0  0  0  0  0  0  0  0
  146.8630  155.4870  133.2160 C   0  0  0  0  0  0  0  0  0  0  0  0
  145.6060  155.0020  133.6680 C   0  0  0  0  0  0  0  0  0  0  0  0
  144.5580  155.8880  133.9670 C   0  0  0  0  0  0  0  0  0  0  0  0
  144.7900  157.2500  133.8190 C   0  0  0  0  0  0  0  0  0  0  0  0
  143.9440  158.3200  134.0050 C   0  0  0  0  0  0  0  0  0  0  0  0
  144.6980  159.4480  133.6860 C   0  0  0  0  0  0  0  0  0  0  0  0
  144.1720  160.8300  133.7710 C   0  0  0  0  0  0  0  0  0  0  0  0
  145.0350  161.9360  134.0160 N   0  0  0  0  0  0  0  0  0  0  0  0
  142.9350  161.0340  133.6420 O   0  0  0  0  0  0  0  0  0  0  0  0
  145.9630  159.0880  133.3260 N   0  0  0  0  0  0  0  0  0  0  0  0
  147.0350  159.9400  132.8960 C   0  0  0  0  0  0  0  0  0  0  0  0
  147.7390  160.5420  133.7510 O   0  0  0  0  0  0  0  0  0  0  0  0
  147.3470  160.0990  131.4380 C   0  0  0  0  0  0  0  0  0  0  0  0
  149.0950  159.7140  131.1220 P   0  0  0  0  0  0  0  0  0  0  0  0
  149.6450  158.8640  132.2450 O   0  0  0  0  0  0  0  0  0  0  0  0
  149.9740  161.1550  131.0290 O   0  0  0  0  0  0  0  0  0  0  0  0
  149.2370  158.8780  129.6590 O   0  0  0  0  0  0  0  0  0  0  0  0
  146.0000  157.7400  133.4060 C   0  0  0  0  0  0  0  0  0  0  0  0
  147.0550  156.8820  133.0770 C   0  0  0  0  0  0  0  0  0  0  0  0
  149.2830  154.8460  132.5930 C   0  0  0  0  0  0  0  0  0  0  0  0
  149.9660  153.7070  132.3670 N   0  0  0  0  0  0  0  0  0  0  0  0
  149.6134  150.8684  133.3885 H   0  0  0  0  0  0  0  0  0  0  0  0
  148.7149  150.7506  131.8376 H   0  0  0  0  0  0  0  0  0  0  0  0
  150.4489  151.2193  131.8376 H   0  0  0  0  0  0  0  0  0  0  0  0
  147.0036  152.5465  133.0101 H   0  0  0  0  0  0  0  0  0  0  0  0
  145.4519  153.9192  133.7852 H   0  0  0  0  0  0  0  0  0  0  0  0
  143.5814  155.5143  134.3086 H   0  0  0  0  0  0  0  0  0  0  0  0
  142.8952  158.2909  134.3354 H   0  0  0  0  0  0  0  0  0  0  0  0
  146.0220  161.9350  133.6750 H   0  0  0  0  0  0  0  0  0  0  0  0
  146.7134  159.4148  130.8545 H   0  0  0  0  0  0  0  0  0  0  0  0
  147.1503  161.1398  131.1412 H   0  0  0  0  0  0  0  0  0  0  0  0
  148.0139  157.2836  132.7177 H   0  0  0  0  0  0  0  0  0  0  0  0
  149.7073  155.8599  132.5490 H   0  0  0  0  0  0  0  0  0  0  0  0
  1  2  1  0
  2  3  1  0
  3  4  2  0
  4  5  1  0
  5  6  2  0
  6  7  1  0
  7  8  2  0
  8  9  1  0
  9 10  2  0
 10 11  1  0
 11 12  1  0
 11 13  2  0
 10 14  1  0
 14 15  1  0
 15 16  2  0
 15 17  1  0
 17 18  1  0
 18 19  2  0
 18 20  1  0
 18 21  1  0
 14 22  1  0
 22 23  2  0
  4 24  1  0
 24 25  2  0
 25  2  1  0
 23  5  1  0
 22  8  1  0
  1 26  1  0
  1 27  1  0
  1 28  1  0
  3 29  1  0
  6 30  1  0
  7 31  1  0
  9 32  1  0
 12 33  1  0
 17 34  1  0
 17 35  1  0
 23 36  1  0
 24 37  1  0
M  CHG  3  12  -1  20  -1  21  -1
M  END
>  <UniqueID>  (45) 
45

>  <SMILES>  (45) 
Cn1cc(-c2ccc3cc(C([NH-])=O)n(C(=O)CP(=O)([O-])[O-])c3c2)cn1

>  <Energy>  (45) 
104.84751287060438

>  <Genealogy>  (45) 
Cn1cc(-c2ccc3cc(C([NH-])=O)n(C(=O)CP(=O)([O-])[O-])c3c2)cn1 (protonated)
Cn1cc(-c2ccc3cc(C([NH-])=O)n(C(=O)CP(=O)([O-])[O-])c3c2)cn1 (3D coordinates assigned)
Cn1cc(-c2ccc3cc(C([NH-])=O)n(C(=O)CP(=O)([O-])[O-])c3c2)cn1 (optimized conformer: 104.84751287060438 kcal/mol)

>  <smiles>  (45) 
Cn1cc(-c2ccc3cc(C(N)=O)n(C(=O)CP(=O)(O)O)c3c2)cn1

>  <score_type>  (45) 
oracle

>  <origin>  (45) 
adg

>  <m_score__min__energy>  (45) 
-7.2800000000000002

>  <m_primary>  (45) 
energy

$$$$
45:0
     RDKit          3D

 41 42  0  0  0  0  0  0  0  0999 V2000
  143.1150  160.4680  133.3210 N   0  0  0  0  0  0  0  0  0  0  0  0
  144.4600  160.5240  133.7990 C   0  0  0  0  0  0  0  0  0  0  0  0
  144.8690  161.5680  134.3720 O   0  0  0  0  0  0  0  0  0  0  0  0
  145.3990  159.4060  133.5720 C   0  0  0  0  0  0  0  0  0  0  0  0
  146.7760  159.5740  133.4650 C   0  0  0  0  0  0  0  0  0  0  0  0
  147.2730  158.3210  133.1840 C   0  0  0  0  0  0  0  0  0  0  0  0
  148.5840  157.9050  132.9750 C   0  0  0  0  0  0  0  0  0  0  0  0
  148.8100  156.5420  132.7240 C   0  0  0  0  0  0  0  0  0  0  0  0
  147.7360  155.6170  132.6980 C   0  0  0  0  0  0  0  0  0  0  0  0
  148.0160  154.2260  132.4450 N   0  0  0  0  0  0  0  0  0  0  0  0
  149.3550  153.6320  132.4390 C   0  0  0  0  0  0  0  0  0  0  0  0
  149.2910  152.1460  132.7860 C   0  0  0  0  0  0  0  0  0  0  0  0
  147.9980  151.6650  132.5410 O   0  0  0  0  0  0  0  0  0  0  0  0
  146.4180  156.0800  132.9310 C   0  0  0  0  0  0  0  0  0  0  0  0
  146.2160  157.4490  133.1440 C   0  0  0  0  0  0  0  0  0  0  0  0
  145.0550  158.1010  133.3820 N   0  0  0  0  0  0  0  0  0  0  0  0
  143.7490  157.5090  133.4890 C   0  0  0  0  0  0  0  0  0  0  0  0
  142.8680  157.7630  132.6230 O   0  0  0  0  0  0  0  0  0  0  0  0
  143.4590  156.6620  134.5610 O   0  0  0  0  0  0  0  0  0  0  0  0
  142.7560  155.4340  134.4150 C   0  0  0  0  0  0  0  0  0  0  0  0
  143.4790  154.5620  133.4000 C   0  0  0  0  0  0  0  0  0  0  0  0
  144.1670  153.5140  134.0700 O   0  0  0  0  0  0  0  0  0  0  0  0
  145.4060  153.0770  133.6500 N   0  0  0  0  0  0  0  0  0  0  0  0
  145.4970  152.3850  132.6170 O   0  0  0  0  0  0  0  0  0  0  0  0
  146.5440  153.3880  134.3600 O   0  0  0  0  0  0  0  0  0  0  0  0
  142.4560  161.2540  133.5200 H   0  0  0  0  0  0  0  0  0  0  0  0
  142.7950  159.6950  132.6990 H   0  0  0  0  0  0  0  0  0  0  0  0
  147.3457  160.5079  133.5802 H   0  0  0  0  0  0  0  0  0  0  0  0
  149.4179  158.6217  133.0054 H   0  0  0  0  0  0  0  0  0  0  0  0
  149.8355  156.1868  132.5449 H   0  0  0  0  0  0  0  0  0  0  0  0
  147.2150  153.5910  132.2210 H   0  0  0  0  0  0  0  0  0  0  0  0
  149.7973  153.7500  131.4388 H   0  0  0  0  0  0  0  0  0  0  0  0
  149.9710  154.1438  133.1930 H   0  0  0  0  0  0  0  0  0  0  0  0
  150.0117  151.5931  132.1656 H   0  0  0  0  0  0  0  0  0  0  0  0
  149.5393  152.0063  133.8485 H   0  0  0  0  0  0  0  0  0  0  0  0
  147.4750  151.8520  133.3630 H   0  0  0  0  0  0  0  0  0  0  0  0
  145.5707  155.3787  132.9444 H   0  0  0  0  0  0  0  0  0  0  0  0
  142.7165  154.9151  135.3841 H   0  0  0  0  0  0  0  0  0  0  0  0
  141.7314  155.6335  134.0679 H   0  0  0  0  0  0  0  0  0  0  0  0
  142.7468  154.1304  132.7018 H   0  0  0  0  0  0  0  0  0  0  0  0
  144.2035  155.1754  132.8443 H   0  0  0  0  0  0  0  0  0  0  0  0
  1  2  1  0
  2  3  2  0
  2  4  1  0
  4  5  2  0
  5  6  1  0
  6  7  2  0
  7  8  1  0
  8  9  2  0
  9 10  1  0
 10 11  1  0
 11 12  1  0
 12 13  1  0
  9 14  1  0
 14 15  2  0
 15 16  1  0
 16 17  1  0
 17 18  2  0
 17 19  1  0
 19 20  1  0
 20 21  1  0
 21 22  1  0
 22 23  1  0
 23 24  2  0
 23 25  1  0
 16  4  1  0
 15  6  1  0
  1 26  1  0
  1 27  1  0
  5 28  1  0
  7 29  1  0
  8 30  1  0
 10 31  1  0
 11 32  1  0
 11 33  1  0
 12 34  1  0
 12 35  1  0
 13 36  1  0
 14 37  1  0
 20 38  1  0
 20 39  1  0
 21 40  1  0
 21 41  1  0
M  CHG  2  23   1  25  -1
M  END
>  <UniqueID>  (46) 
46

>  <SMILES>  (46) 
NC(=O)c1cc2ccc(NCCO)cc2n1C(=O)OCCO[N+](=O)[O-]

>  <Energy>  (46) 
69.45601892728284

>  <Genealogy>  (46) 
NC(=O)c1cc2ccc(NCCO)cc2n1C(=O)OCCO[N+](=O)[O-] (protonated)
NC(=O)c1cc2ccc(NCCO)cc2n1C(=O)OCCO[N+](=O)[O-] (3D coordinates assigned)
NC(=O)c1cc2ccc(NCCO)cc2n1C(=O)OCCO[N+](=O)[O-] (optimized conformer: 69.45601892728284 kcal/mol)

>  <smiles>  (46) 
NC(=O)c1cc2ccc(NCCO)cc2n1C(=O)OCCO[N+](=O)O

>  <score_type>  (46) 
oracle

>  <origin>  (46) 
adg

>  <m_score__min__energy>  (46) 
-6.3899999999999997

>  <m_primary>  (46) 
energy

$$$$
46:0
     RDKit          3D

 31 32  0  0  0  0  0  0  0  0999 V2000
  142.2920  158.2130  134.7170 C   0  0  0  0  0  0  0  0  0  0  0  0
  143.5470  158.8520  134.2040 C   0  0  0  0  0  0  0  0  0  0  0  0
  143.6280  160.2610  134.0860 C   0  0  0  0  0  0  0  0  0  0  0  0
  144.8160  160.8760  133.6540 C   0  0  0  0  0  0  0  0  0  0  0  0
  145.9010  160.0580  133.3540 C   0  0  0  0  0  0  0  0  0  0  0  0
  147.1720  160.3900  132.9460 C   0  0  0  0  0  0  0  0  0  0  0  0
  147.8470  159.1780  132.8130 C   0  0  0  0  0  0  0  0  0  0  0  0
  149.2300  159.0700  132.3060 C   0  0  0  0  0  0  0  0  0  0  0  0
  149.8310  157.7990  132.0780 N   0  0  0  0  0  0  0  0  0  0  0  0
  149.8740  160.1160  132.0230 O   0  0  0  0  0  0  0  0  0  0  0  0
  147.0270  158.1370  133.1360 N   0  0  0  0  0  0  0  0  0  0  0  0
  147.3590  156.7430  133.2070 C   0  0  0  0  0  0  0  0  0  0  0  0
  147.5440  156.0840  132.1480 O   0  0  0  0  0  0  0  0  0  0  0  0
  147.5070  156.1290  134.4570 O   0  0  0  0  0  0  0  0  0  0  0  0
  147.6670  154.7240  134.6310 C   0  0  0  0  0  0  0  0  0  0  0  0
  146.1780  154.0060  135.3920 P   0  0  0  0  0  0  0  0  0  0  0  0
  145.4760  153.1260  134.3820 O   0  0  0  0  0  0  0  0  0  0  0  0
  145.1270  155.2340  135.8880 O   0  0  0  0  0  0  0  0  0  0  0  0
  146.6240  153.0740  136.7310 O   0  0  0  0  0  0  0  0  0  0  0  0
  145.8380  158.6930  133.4610 C   0  0  0  0  0  0  0  0  0  0  0  0
  144.6750  158.0550  133.9070 C   0  0  0  0  0  0  0  0  0  0  0  0
  142.3013  158.2177  135.8169 H   0  0  0  0  0  0  0  0  0  0  0  0
  141.4193  158.7765  134.3553 H   0  0  0  0  0  0  0  0  0  0  0  0
  142.2344  157.1758  134.3553 H   0  0  0  0  0  0  0  0  0  0  0  0
  142.7533  160.8798  134.3347 H   0  0  0  0  0  0  0  0  0  0  0  0
  144.8857  161.9694  133.5562 H   0  0  0  0  0  0  0  0  0  0  0  0
  147.5711  161.3986  132.7634 H   0  0  0  0  0  0  0  0  0  0  0  0
  149.3530  157.0740  131.4990 H   0  0  0  0  0  0  0  0  0  0  0  0
  147.8357  154.2542  133.6508 H   0  0  0  0  0  0  0  0  0  0  0  0
  148.5283  154.5417  135.2905 H   0  0  0  0  0  0  0  0  0  0  0  0
  144.6401  156.9617  134.0232 H   0  0  0  0  0  0  0  0  0  0  0  0
  1  2  1  0
  2  3  2  0
  3  4  1  0
  4  5  2  0
  5  6  1  0
  6  7  2  0
  7  8  1  0
  8  9  1  0
  8 10  2  0
  7 11  1  0
 11 12  1  0
 12 13  2  0
 12 14  1  0
 14 15  1  0
 15 16  1  0
 16 17  2  0
 16 18  1  0
 16 19  1  0
 11 20  1  0
 20 21  2  0
 21  2  1  0
 20  5  1  0
  1 22  1  0
  1 23  1  0
  1 24  1  0
  3 25  1  0
  4 26  1  0
  6 27  1  0
  9 28  1  0
 15 29  1  0
 15 30  1  0
 21 31  1  0
M  CHG  3   9  -1  18  -1  19  -1
M  END
>  <UniqueID>  (47) 
47

>  <SMILES>  (47) 
Cc1ccc2cc(C([NH-])=O)n(C(=O)OCP(=O)([O-])[O-])c2c1

>  <Energy>  (47) 
64.8718352813042

>  <Genealogy>  (47) 
Cc1ccc2cc(C([NH-])=O)n(C(=O)OCP(=O)([O-])[O-])c2c1 (protonated)
Cc1ccc2cc(C([NH-])=O)n(C(=O)OCP(=O)([O-])[O-])c2c1 (3D coordinates assigned)
Cc1ccc2cc(C([NH-])=O)n(C(=O)OCP(=O)([O-])[O-])c2c1 (optimized conformer: 64.8718352813042 kcal/mol)

>  <smiles>  (47) 
Cc1ccc2cc(C(N)=O)n(C(=O)OCP(=O)(O)O)c2c1

>  <score_type>  (47) 
oracle

>  <origin>  (47) 
adg

>  <m_score__min__energy>  (47) 
-6.2300000000000004

>  <m_primary>  (47) 
energy

$$$$
47:0
     RDKit          3D

 45 46  0  0  0  0  0  0  0  0999 V2000
  142.7000  154.7930  135.6080 C   0  0  0  0  0  0  0  0  0  0  0  0
  142.8420  156.0740  136.1790 O   0  0  0  0  0  0  0  0  0  0  0  0
  141.9110  156.2210  137.2300 C   0  0  0  0  0  0  0  0  0  0  0  0
  140.6350  156.7830  136.6820 C   0  0  0  0  0  0  0  0  0  0  0  0
  139.6260  156.8660  137.4330 O   0  0  0  0  0  0  0  0  0  0  0  0
  140.5740  157.2790  135.3390 N   0  0  0  0  0  0  0  0  0  0  0  0
  139.3370  157.8330  134.7880 C   0  0  0  0  0  0  0  0  0  0  0  0
  139.6020  158.5290  133.4910 C   0  0  0  0  0  0  0  0  0  0  0  0
  138.6420  158.8260  132.7280 O   0  0  0  0  0  0  0  0  0  0  0  0
  140.9220  158.8160  133.1250 O   0  0  0  0  0  0  0  0  0  0  0  0
  141.7530  157.8830  132.4430 C   0  0  0  0  0  0  0  0  0  0  0  0
  142.8170  157.4780  133.2970 O   0  0  0  0  0  0  0  0  0  0  0  0
  143.4710  158.3610  134.1630 C   0  0  0  0  0  0  0  0  0  0  0  0
  142.9620  158.6530  135.2780 O   0  0  0  0  0  0  0  0  0  0  0  0
  144.7460  158.9060  133.7900 N   0  0  0  0  0  0  0  0  0  0  0  0
  145.0950  160.2190  133.6770 C   0  0  0  0  0  0  0  0  0  0  0  0
  144.1800  161.3750  133.7780 C   0  0  0  0  0  0  0  0  0  0  0  0
  142.7650  161.2000  133.7280 N   0  0  0  0  0  0  0  0  0  0  0  0
  144.6550  162.5390  133.8660 O   0  0  0  0  0  0  0  0  0  0  0  0
  146.4440  160.3360  133.3480 C   0  0  0  0  0  0  0  0  0  0  0  0
  146.9110  159.0450  133.2540 C   0  0  0  0  0  0  0  0  0  0  0  0
  148.1830  158.5730  132.9440 C   0  0  0  0  0  0  0  0  0  0  0  0
  148.3840  157.1830  132.9340 C   0  0  0  0  0  0  0  0  0  0  0  0
  147.3270  156.2920  133.2540 C   0  0  0  0  0  0  0  0  0  0  0  0
  147.5520  154.8040  133.2020 C   0  0  0  0  0  0  0  0  0  0  0  0
  147.7610  154.2920  134.4710 F   0  0  0  0  0  0  0  0  0  0  0  0
  148.6620  154.5100  132.4270 F   0  0  0  0  0  0  0  0  0  0  0  0
  146.4420  154.1950  132.6480 F   0  0  0  0  0  0  0  0  0  0  0  0
  146.0410  156.8120  133.5370 C   0  0  0  0  0  0  0  0  0  0  0  0
  145.8660  158.2010  133.5260 C   0  0  0  0  0  0  0  0  0  0  0  0
  142.6168  154.0423  136.4077 H   0  0  0  0  0  0  0  0  0  0  0  0
  141.7935  154.7675  134.9854 H   0  0  0  0  0  0  0  0  0  0  0  0
  143.5789  154.5696  134.9854 H   0  0  0  0  0  0  0  0  0  0  0  0
  141.7146  155.2401  137.6875 H   0  0  0  0  0  0  0  0  0  0  0  0
  142.3179  156.9021  137.9919 H   0  0  0  0  0  0  0  0  0  0  0  0
  141.4360  157.2360  134.7460 H   0  0  0  0  0  0  0  0  0  0  0  0
  138.6191  157.0167  134.6198 H   0  0  0  0  0  0  0  0  0  0  0  0
  138.9260  158.5610  135.5029 H   0  0  0  0  0  0  0  0  0  0  0  0
  141.1578  157.0032  132.1573 H   0  0  0  0  0  0  0  0  0  0  0  0
  142.1685  158.3554  131.5406 H   0  0  0  0  0  0  0  0  0  0  0  0
  142.3300  160.2730  133.9330 H   0  0  0  0  0  0  0  0  0  0  0  0
  147.0148  161.2639  133.1957 H   0  0  0  0  0  0  0  0  0  0  0  0
  149.0051  159.2668  132.7140 H   0  0  0  0  0  0  0  0  0  0  0  0
  149.3740  156.7797  132.6747 H   0  0  0  0  0  0  0  0  0  0  0  0
  145.1990  156.1404  133.7603 H   0  0  0  0  0  0  0  0  0  0  0  0
  1  2  1  0
  2  3  1  0
  3  4  1  0
  4  5  2  0
  4  6  1  0
  6  7  1  0
  7  8  1  0
  8  9  2  0
  8 10  1  0
 10 11  1  0
 11 12  1  0
 12 13  1  0
 13 14  2  0
 13 15  1  0
 15 16  1  0
 16 17  1  0
 17 18  1  0
 17 19  2  0
 16 20  2  0
 20 21  1  0
 21 22  2  0
 22 23  1  0
 23 24  2  0
 24 25  1  0
 25 26  1  0
 25 27  1  0
 25 28  1  0
 24 29  1  0
 29 30  2  0
 30 15  1  0
 30 21  1  0
  1 31  1  0
  1 32  1  0
  1 33  1  0
  3 34  1  0
  3 35  1  0
  6 36  1  0
  7 37  1  0
  7 38  1  0
 11 39  1  0
 11 40  1  0
 18 41  1  0
 20 42  1  0
 22 43  1  0
 23 44  1  0
 29 45  1  0
M  CHG  1  18  -1
M  END
>  <UniqueID>  (48) 
48

>  <SMILES>  (48) 
COCC(=O)NCC(=O)OCOC(=O)n1c(C([NH-])=O)cc2ccc(C(F)(F)F)cc21

>  <Energy>  (48) 
77.58127509226999

>  <Genealogy>  (48) 
COCC(=O)NCC(=O)OCOC(=O)n1c(C([NH-])=O)cc2ccc(C(F)(F)F)cc21 (protonated)
COCC(=O)NCC(=O)OCOC(=O)n1c(C([NH-])=O)cc2ccc(C(F)(F)F)cc21 (3D coordinates assigned)
COCC(=O)NCC(=O)OCOC(=O)n1c(C([NH-])=O)cc2ccc(C(F)(F)F)cc21 (optimized conformer: 77.58127509226999 kcal/mol)

>  <smiles>  (48) 
COCC(=O)NCC(=O)OCOC(=O)n1c(C(N)=O)cc2ccc(C(F)(F)F)cc21

>  <score_type>  (48) 
oracle

>  <origin>  (48) 
adg

>  <m_score__min__energy>  (48) 
-5.4400000000000004

>  <m_primary>  (48) 
energy

$$$$
48:0
     RDKit          3D

 34 35  0  0  0  0  0  0  0  0999 V2000
  145.1670  154.4720  133.9560 C   0  0  0  0  0  0  0  0  0  0  0  0
  146.3150  155.3810  134.0320 N   0  0  0  0  0  0  0  0  0  0  0  0
  147.1600  155.3840  135.2320 C   0  0  0  0  0  0  0  0  0  0  0  0
  147.5420  153.9850  135.5950 C   0  0  0  0  0  0  0  0  0  0  0  0
  148.4250  153.3770  134.9350 O   0  0  0  0  0  0  0  0  0  0  0  0
  146.9560  153.3680  136.6940 O   0  0  0  0  0  0  0  0  0  0  0  0
  146.5210  156.3620  132.9960 C   0  0  0  0  0  0  0  0  0  0  0  0
  147.0210  156.0210  131.8900 O   0  0  0  0  0  0  0  0  0  0  0  0
  146.1660  157.7350  133.2070 N   0  0  0  0  0  0  0  0  0  0  0  0
  146.9830  158.8220  133.1590 C   0  0  0  0  0  0  0  0  0  0  0  0
  148.4460  158.7860  132.9610 C   0  0  0  0  0  0  0  0  0  0  0  0
  148.9890  158.2470  131.7570 N   0  0  0  0  0  0  0  0  0  0  0  0
  149.2260  159.2410  133.8400 O   0  0  0  0  0  0  0  0  0  0  0  0
  146.2490  159.9910  133.3570 C   0  0  0  0  0  0  0  0  0  0  0  0
  144.9450  159.5780  133.5220 C   0  0  0  0  0  0  0  0  0  0  0  0
  143.7850  160.3190  133.7240 C   0  0  0  0  0  0  0  0  0  0  0  0
  142.5680  159.6240  133.8300 C   0  0  0  0  0  0  0  0  0  0  0  0
  142.5300  158.2080  133.7430 C   0  0  0  0  0  0  0  0  0  0  0  0
  141.2120  157.4800  133.8050 C   0  0  0  0  0  0  0  0  0  0  0  0
  141.4460  156.1230  133.9260 F   0  0  0  0  0  0  0  0  0  0  0  0
  140.4680  157.9070  134.8920 F   0  0  0  0  0  0  0  0  0  0  0  0
  140.4730  157.7110  132.6580 F   0  0  0  0  0  0  0  0  0  0  0  0
  143.7280  157.4930  133.5100 C   0  0  0  0  0  0  0  0  0  0  0  0
  144.9240  158.2120  133.4230 C   0  0  0  0  0  0  0  0  0  0  0  0
  144.8378  154.2113  134.9727 H   0  0  0  0  0  0  0  0  0  0  0  0
  144.3435  154.9655  133.4191 H   0  0  0  0  0  0  0  0  0  0  0  0
  145.4585  153.5572  133.4191 H   0  0  0  0  0  0  0  0  0  0  0  0
  148.0698  155.9700  135.0348 H   0  0  0  0  0  0  0  0  0  0  0  0
  146.5995  155.8320  136.0658 H   0  0  0  0  0  0  0  0  0  0  0  0
  148.6800  157.3150  131.4000 H   0  0  0  0  0  0  0  0  0  0  0  0
  146.6298  161.0228  133.3771 H   0  0  0  0  0  0  0  0  0  0  0  0
  143.8193  161.4159  133.7985 H   0  0  0  0  0  0  0  0  0  0  0  0
  141.6337  160.1843  133.9822 H   0  0  0  0  0  0  0  0  0  0  0  0
  143.7190  156.3985  133.4000 H   0  0  0  0  0  0  0  0  0  0  0  0
  1  2  1  0
  2  3  1  0
  3  4  1  0
  4  5  2  0
  4  6  1  0
  2  7  1  0
  7  8  2  0
  7  9  1  0
  9 10  1  0
 10 11  1  0
 11 12  1  0
 11 13  2  0
 10 14  2  0
 14 15  1  0
 15 16  2  0
 16 17  1  0
 17 18  2  0
 18 19  1  0
 19 20  1  0
 19 21  1  0
 19 22  1  0
 18 23  1  0
 23 24  2  0
 24  9  1  0
 24 15  1  0
  1 25  1  0
  1 26  1  0
  1 27  1  0
  3 28  1  0
  3 29  1  0
 12 30  1  0
 14 31  1  0
 16 32  1  0
 17 33  1  0
 23 34  1  0
M  CHG  2   6  -1  12  -1
M  END
>  <UniqueID>  (49) 
49

>  <SMILES>  (49) 
CN(CC(=O)[O-])C(=O)n1c(C([NH-])=O)cc2ccc(C(F)(F)F)cc21

>  <Energy>  (49) 
71.03580945055471

>  <Genealogy>  (49) 
CN(CC(=O)[O-])C(=O)n1c(C([NH-])=O)cc2ccc(C(F)(F)F)cc21 (protonated)
CN(CC(=O)[O-])C(=O)n1c(C([NH-])=O)cc2ccc(C(F)(F)F)cc21 (3D coordinates assigned)
CN(CC(=O)[O-])C(=O)n1c(C([NH-])=O)cc2ccc(C(F)(F)F)cc21 (optimized conformer: 71.03580945055471 kcal/mol)

>  <smiles>  (49) 
CN(CC(=O)O)C(=O)n1c(C(N)=O)cc2ccc(C(F)(F)F)cc21

>  <score_type>  (49) 
oracle

>  <origin>  (49) 
adg

>  <m_score__min__energy>  (49) 
-5.6100000000000003

>  <m_primary>  (49) 
energy

$$$$
49:0
     RDKit          3D

 32 33  0  0  0  0  0  0  0  0999 V2000
  149.6310  158.6050  131.8670 C   0  0  0  0  0  0  0  0  0  0  0  0
  149.2110  159.3650  130.8510 C   0  0  0  0  0  0  0  0  0  0  0  0
  148.2860  160.5310  131.0610 C   0  0  0  0  0  0  0  0  0  0  0  0
  147.0230  160.0770  131.5410 O   0  0  0  0  0  0  0  0  0  0  0  0
  146.6850  160.0440  132.8990 C   0  0  0  0  0  0  0  0  0  0  0  0
  147.2340  160.8370  133.7130 O   0  0  0  0  0  0  0  0  0  0  0  0
  145.6890  159.1210  133.3620 N   0  0  0  0  0  0  0  0  0  0  0  0
  144.3850  159.3780  133.6660 C   0  0  0  0  0  0  0  0  0  0  0  0
  143.7550  160.7130  133.7330 C   0  0  0  0  0  0  0  0  0  0  0  0
  144.5460  161.8920  133.8590 N   0  0  0  0  0  0  0  0  0  0  0  0
  142.4990  160.8110  133.7270 O   0  0  0  0  0  0  0  0  0  0  0  0
  143.7190  158.1980  133.9950 C   0  0  0  0  0  0  0  0  0  0  0  0
  144.6650  157.2050  133.8930 C   0  0  0  0  0  0  0  0  0  0  0  0
  144.5470  155.8330  134.0890 C   0  0  0  0  0  0  0  0  0  0  0  0
  145.6830  155.0350  133.8790 C   0  0  0  0  0  0  0  0  0  0  0  0
  146.9160  155.6190  133.4880 C   0  0  0  0  0  0  0  0  0  0  0  0
  148.1120  154.7460  133.2040 C   0  0  0  0  0  0  0  0  0  0  0  0
  149.1790  155.5080  132.7600 F   0  0  0  0  0  0  0  0  0  0  0  0
  148.4810  154.0880  134.3630 F   0  0  0  0  0  0  0  0  0  0  0  0
  147.8140  153.8100  132.2280 F   0  0  0  0  0  0  0  0  0  0  0  0
  146.9900  157.0150  133.2750 C   0  0  0  0  0  0  0  0  0  0  0  0
  145.8450  157.7870  133.5100 C   0  0  0  0  0  0  0  0  0  0  0  0
  150.3080  157.7589  131.6778 H   0  0  0  0  0  0  0  0  0  0  0  0
  149.2996  158.8255  132.8925 H   0  0  0  0  0  0  0  0  0  0  0  0
  149.5521  159.1305  129.8318 H   0  0  0  0  0  0  0  0  0  0  0  0
  148.7288  161.2182  131.7970 H   0  0  0  0  0  0  0  0  0  0  0  0
  148.1401  161.0506  130.1025 H   0  0  0  0  0  0  0  0  0  0  0  0
  145.4510  161.9900  133.3480 H   0  0  0  0  0  0  0  0  0  0  0  0
  142.6616  158.0853  134.2763 H   0  0  0  0  0  0  0  0  0  0  0  0
  143.5911  155.3860  134.3996 H   0  0  0  0  0  0  0  0  0  0  0  0
  145.6166  153.9460  134.0190 H   0  0  0  0  0  0  0  0  0  0  0  0
  147.9246  157.4836  132.9329 H   0  0  0  0  0  0  0  0  0  0  0  0
  1  2  2  0
  2  3  1  0
  3  4  1  0
  4  5  1  0
  5  6  2  0
  5  7  1  0
  7  8  1  0
  8  9  1  0
  9 10  1  0
  9 11  2  0
  8 12  2  0
 12 13  1  0
 13 14  2  0
 14 15  1  0
 15 16  2  0
 16 17  1  0
 17 18  1  0
 17 19  1  0
 17 20  1  0
 16 21  1  0
 21 22  2  0
 22  7  1  0
 22 13  1  0
  1 23  1  0
  1 24  1  0
  2 25  1  0
  3 26  1  0
  3 27  1  0
 10 28  1  0
 12 29  1  0
 14 30  1  0
 15 31  1  0
 21 32  1  0
M  CHG  1  10  -1
M  END
>  <UniqueID>  (50) 
50

>  <SMILES>  (50) 
C=CCOC(=O)n1c(C([NH-])=O)cc2ccc(C(F)(F)F)cc21

>  <Energy>  (50) 
68.66933663393961

>  <Genealogy>  (50) 
C=CCOC(=O)n1c(C([NH-])=O)cc2ccc(C(F)(F)F)cc21 (protonated)
C=CCOC(=O)n1c(C([NH-])=O)cc2ccc(C(F)(F)F)cc21 (3D coordinates assigned)
C=CCOC(=O)n1c(C([NH-])=O)cc2ccc(C(F)(F)F)cc21 (optimized conformer: 68.66933663393961 kcal/mol)

>  <smiles>  (50) 
C=CCOC(=O)n1c(C(N)=O)cc2ccc(C(F)(F)F)cc21

>  <score_type>  (50) 
oracle

>  <origin>  (50) 
adg

>  <m_score__min__energy>  (50) 
-5.7999999999999998

>  <m_primary>  (50) 
energy

$$$$
50:0
     RDKit          3D

 37 38  0  0  0  0  0  0  0  0999 V2000
  139.7820  158.2850  132.9080 C   0  0  0  0  0  0  0  0  0  0  0  0
  140.5970  158.5160  134.1060 N   0  0  0  0  0  0  0  0  0  0  0  0
  140.0440  158.1770  135.4280 C   0  0  0  0  0  0  0  0  0  0  0  0
  140.7910  158.8960  136.5070 C   0  0  0  0  0  0  0  0  0  0  0  0
  140.6430  160.1370  136.6630 O   0  0  0  0  0  0  0  0  0  0  0  0
  141.6690  158.1980  137.3260 O   0  0  0  0  0  0  0  0  0  0  0  0
  141.9400  159.0450  133.9710 C   0  0  0  0  0  0  0  0  0  0  0  0
  142.1620  160.4450  133.8690 C   0  0  0  0  0  0  0  0  0  0  0  0
  143.4600  160.9630  133.7330 C   0  0  0  0  0  0  0  0  0  0  0  0
  144.5210  160.0660  133.7070 C   0  0  0  0  0  0  0  0  0  0  0  0
  145.8700  160.2990  133.5660 C   0  0  0  0  0  0  0  0  0  0  0  0
  146.4670  159.0390  133.6040 C   0  0  0  0  0  0  0  0  0  0  0  0
  147.9310  158.8210  133.5800 C   0  0  0  0  0  0  0  0  0  0  0  0
  148.4880  157.5620  133.9630 N   0  0  0  0  0  0  0  0  0  0  0  0
  148.7010  159.7380  133.1900 O   0  0  0  0  0  0  0  0  0  0  0  0
  145.5230  158.0690  133.7590 N   0  0  0  0  0  0  0  0  0  0  0  0
  145.7220  156.6460  133.7900 C   0  0  0  0  0  0  0  0  0  0  0  0
  146.4180  156.0900  132.8950 O   0  0  0  0  0  0  0  0  0  0  0  0
  145.1280  155.8870  134.8080 O   0  0  0  0  0  0  0  0  0  0  0  0
  145.5320  154.6040  135.1990 C   0  0  0  0  0  0  0  0  0  0  0  0
  144.8210  153.5910  134.9510 O   0  0  0  0  0  0  0  0  0  0  0  0
  146.8020  154.4370  135.9090 C   0  0  0  0  0  0  0  0  0  0  0  0
  147.7210  155.2860  135.7670 O   0  0  0  0  0  0  0  0  0  0  0  0
  146.9990  153.3440  136.7440 O   0  0  0  0  0  0  0  0  0  0  0  0
  144.3370  158.7140  133.8200 C   0  0  0  0  0  0  0  0  0  0  0  0
  143.0530  158.1680  133.9370 C   0  0  0  0  0  0  0  0  0  0  0  0
  138.7636  157.9964  133.2074 H   0  0  0  0  0  0  0  0  0  0  0  0
  139.7408  159.2068  132.3092 H   0  0  0  0  0  0  0  0  0  0  0  0
  140.2306  157.4786  132.3092 H   0  0  0  0  0  0  0  0  0  0  0  0
  138.9845  158.4705  135.4636 H   0  0  0  0  0  0  0  0  0  0  0  0
  140.1421  157.0931  135.5881 H   0  0  0  0  0  0  0  0  0  0  0  0
  141.3042  161.1331  133.8970 H   0  0  0  0  0  0  0  0  0  0  0  0
  143.6318  162.0463  133.6495 H   0  0  0  0  0  0  0  0  0  0  0  0
  146.3706  161.2714  133.4484 H   0  0  0  0  0  0  0  0  0  0  0  0
  149.5190  157.4060  133.9050 H   0  0  0  0  0  0  0  0  0  0  0  0
  147.8890  156.7970  134.3430 H   0  0  0  0  0  0  0  0  0  0  0  0
  142.9107  157.0791  134.0013 H   0  0  0  0  0  0  0  0  0  0  0  0
  1  2  1  0
  2  3  1  0
  3  4  1  0
  4  5  2  0
  4  6  1  0
  2  7  1  0
  7  8  2  0
  8  9  1  0
  9 10  2  0
 10 11  1  0
 11 12  2  0
 12 13  1  0
 13 14  1  0
 13 15  2  0
 12 16  1  0
 16 17  1  0
 17 18  2  0
 17 19  1  0
 19 20  1  0
 20 21  2  0
 20 22  1  0
 22 23  2  0
 22 24  1  0
 16 25  1  0
 25 26  2  0
 26  7  1  0
 25 10  1  0
  1 27  1  0
  1 28  1  0
  1 29  1  0
  3 30  1  0
  3 31  1  0
  8 32  1  0
  9 33  1  0
 11 34  1  0
 14 35  1  0
 14 36  1  0
 26 37  1  0
M  CHG  2   6  -1  24  -1
M  END
>  <UniqueID>  (51) 
51

>  <SMILES>  (51) 
CN(CC(=O)[O-])c1ccc2cc(C(N)=O)n(C(=O)OC(=O)C(=O)[O-])c2c1

>  <Energy>  (51) 
77.01596192966433

>  <Genealogy>  (51) 
CN(CC(=O)[O-])c1ccc2cc(C(N)=O)n(C(=O)OC(=O)C(=O)[O-])c2c1 (protonated)
CN(CC(=O)[O-])c1ccc2cc(C(N)=O)n(C(=O)OC(=O)C(=O)[O-])c2c1 (3D coordinates assigned)
CN(CC(=O)[O-])c1ccc2cc(C(N)=O)n(C(=O)OC(=O)C(=O)[O-])c2c1 (optimized conformer: 77.01596192966433 kcal/mol)

>  <smiles>  (51) 
CN(CC(=O)O)c1ccc2cc(C(N)=O)n(C(=O)OC(=O)C(=O)O)c2c1

>  <score_type>  (51) 
oracle

>  <origin>  (51) 
adg

>  <m_score__min__energy>  (51) 
-6.8899999999999997

>  <m_primary>  (51) 
energy

$$$$
51:0
     RDKit          3D

 37 38  0  0  0  0  0  0  0  0999 V2000
  141.3110  153.3650  132.9990 C   0  0  0  0  0  0  0  0  0  0  0  0
  142.2070  153.9520  133.8010 C   0  0  0  0  0  0  0  0  0  0  0  0
  142.6300  153.2900  135.0790 C   0  0  0  0  0  0  0  0  0  0  0  0
  142.8450  155.5820  133.3860 S   0  0  0  0  0  0  0  0  0  0  0  0
  144.4020  154.9460  132.7420 C   0  0  0  0  0  0  0  0  0  0  0  0
  144.4380  154.5060  131.4820 C   0  0  0  0  0  0  0  0  0  0  0  0
  145.6140  154.9270  133.5960 C   0  0  0  0  0  0  0  0  0  0  0  0
  145.6250  154.2510  134.6630 O   0  0  0  0  0  0  0  0  0  0  0  0
  146.7680  155.7080  133.2580 N   0  0  0  0  0  0  0  0  0  0  0  0
  148.0210  155.2710  132.9400 C   0  0  0  0  0  0  0  0  0  0  0  0
  148.4610  153.8540  132.9510 C   0  0  0  0  0  0  0  0  0  0  0  0
  147.7710  152.8720  133.7300 N   0  0  0  0  0  0  0  0  0  0  0  0
  149.4500  153.4960  132.2530 O   0  0  0  0  0  0  0  0  0  0  0  0
  148.8580  156.3600  132.6800 C   0  0  0  0  0  0  0  0  0  0  0  0
  148.0720  157.4770  132.8610 C   0  0  0  0  0  0  0  0  0  0  0  0
  148.3900  158.8290  132.7470 C   0  0  0  0  0  0  0  0  0  0  0  0
  147.3730  159.7680  132.9970 C   0  0  0  0  0  0  0  0  0  0  0  0
  146.0660  159.3420  133.3450 C   0  0  0  0  0  0  0  0  0  0  0  0
  144.9990  160.3550  133.6350 C   0  0  0  0  0  0  0  0  0  0  0  0
  145.7880  157.9640  133.4740 C   0  0  0  0  0  0  0  0  0  0  0  0
  146.8210  157.0540  133.2220 C   0  0  0  0  0  0  0  0  0  0  0  0
  141.0054  153.8561  132.0634 H   0  0  0  0  0  0  0  0  0  0  0  0
  140.8801  152.3914  133.2753 H   0  0  0  0  0  0  0  0  0  0  0  0
  142.2577  153.8727  135.9345 H   0  0  0  0  0  0  0  0  0  0  0  0
  142.2144  152.2723  135.1198 H   0  0  0  0  0  0  0  0  0  0  0  0
  143.7281  153.2395  135.1198 H   0  0  0  0  0  0  0  0  0  0  0  0
  145.3760  154.1124  131.0635 H   0  0  0  0  0  0  0  0  0  0  0  0
  143.5296  154.5371  130.8624 H   0  0  0  0  0  0  0  0  0  0  0  0
  148.0890  151.8770  133.7110 H   0  0  0  0  0  0  0  0  0  0  0  0
  146.9710  153.1200  134.3500 H   0  0  0  0  0  0  0  0  0  0  0  0
  149.9192  156.3312  132.3919 H   0  0  0  0  0  0  0  0  0  0  0  0
  149.4045  159.1517  132.4702 H   0  0  0  0  0  0  0  0  0  0  0  0
  147.5936  160.8430  132.9218 H   0  0  0  0  0  0  0  0  0  0  0  0
  144.8835  160.4646  134.7234 H   0  0  0  0  0  0  0  0  0  0  0  0
  145.2838  161.3231  133.1971 H   0  0  0  0  0  0  0  0  0  0  0  0
  144.0470  160.0204  133.1971 H   0  0  0  0  0  0  0  0  0  0  0  0
  144.7862  157.6148  133.7648 H   0  0  0  0  0  0  0  0  0  0  0  0
  1  2  2  0
  2  3  1  0
  2  4  1  0
  4  5  1  0
  5  6  2  0
  5  7  1  0
  7  8  2  0
  7  9  1  0
  9 10  1  0
 10 11  1  0
 11 12  1  0
 11 13  2  0
 10 14  2  0
 14 15  1  0
 15 16  2  0
 16 17  1  0
 17 18  2  0
 18 19  1  0
 18 20  1  0
 20 21  2  0
 21  9  1  0
 21 15  1  0
  1 22  1  0
  1 23  1  0
  3 24  1  0
  3 25  1  0
  3 26  1  0
  6 27  1  0
  6 28  1  0
 12 29  1  0
 12 30  1  0
 14 31  1  0
 16 32  1  0
 17 33  1  0
 19 34  1  0
 19 35  1  0
 19 36  1  0
 20 37  1  0
M  END
>  <UniqueID>  (52) 
52

>  <SMILES>  (52) 
C=C(C)SC(=C)C(=O)n1c(C(N)=O)cc2ccc(C)cc21

>  <Energy>  (52) 
65.65906078510342

>  <Genealogy>  (52) 
C=C(C)SC(=C)C(=O)n1c(C(N)=O)cc2ccc(C)cc21 (3D coordinates assigned)
C=C(C)SC(=C)C(=O)n1c(C(N)=O)cc2ccc(C)cc21 (optimized conformer: 65.65906078510342 kcal/mol)

>  <smiles>  (52) 
C=C(C)SC(=C)C(=O)n1c(C(N)=O)cc2ccc(C)cc21

>  <score_type>  (52) 
oracle

>  <origin>  (52) 
adg

>  <m_score__min__energy>  (52) 
-6.8499999999999996

>  <m_primary>  (52) 
energy

$$$$
52:0
     RDKit          3D

 29 30  0  0  0  0  0  0  0  0999 V2000
  141.5730  150.8200  139.9240 C   0  0  0  0  0  0  0  0  0  0  0  0
  141.4660  151.3580  138.4920 C   0  0  1  0  0  0  0  0  0  0  0  0
  140.4090  150.6370  137.6980 C   0  0  0  0  0  0  0  0  0  0  0  0
  139.3150  150.3060  138.2290 O   0  0  0  0  0  0  0  0  0  0  0  0
  140.6180  150.3780  136.3500 O   0  0  0  0  0  0  0  0  0  0  0  0
  141.2140  152.8520  138.4810 C   0  0  0  0  0  0  0  0  0  0  0  0
  140.5020  153.4790  139.5390 C   0  0  0  0  0  0  0  0  0  0  0  0
  140.2610  154.8620  139.5240 C   0  0  0  0  0  0  0  0  0  0  0  0
  140.7500  155.5970  138.4490 C   0  0  0  0  0  0  0  0  0  0  0  0
  140.6390  156.9410  138.1750 C   0  0  0  0  0  0  0  0  0  0  0  0
  141.3040  157.1280  136.9650 C   0  0  0  0  0  0  0  0  0  0  0  0
  141.5020  158.4530  136.3420 C   0  0  0  0  0  0  0  0  0  0  0  0
  140.6020  159.5170  136.6380 N   0  0  0  0  0  0  0  0  0  0  0  0
  142.4810  158.6670  135.5790 O   0  0  0  0  0  0  0  0  0  0  0  0
  141.8010  155.9440  136.5060 N   0  0  0  0  0  0  0  0  0  0  0  0
  142.4840  155.7010  135.2640 C   0  0  0  0  0  0  0  0  0  0  0  0
  143.7400  155.6280  135.2330 O   0  0  0  0  0  0  0  0  0  0  0  0
  141.7630  155.5160  134.0910 O   0  0  0  0  0  0  0  0  0  0  0  0
  141.4550  155.0180  137.4280 C   0  0  0  0  0  0  0  0  0  0  0  0
  141.6940  153.6380  137.4060 C   0  0  0  0  0  0  0  0  0  0  0  0
  141.4097  151.6412  140.6374 H   0  0  0  0  0  0  0  0  0  0  0  0
  140.8121  150.0412  140.0809 H   0  0  0  0  0  0  0  0  0  0  0  0
  142.5739  150.3916  140.0809 H   0  0  0  0  0  0  0  0  0  0  0  0
  142.4351  151.1682  138.0074 H   0  0  0  0  0  0  0  0  0  0  0  0
  140.1350  152.8730  140.3805 H   0  0  0  0  0  0  0  0  0  0  0  0
  139.7028  155.3492  140.3371 H   0  0  0  0  0  0  0  0  0  0  0  0
  140.1326  157.7056  138.7825 H   0  0  0  0  0  0  0  0  0  0  0  0
  139.8020  159.3770  137.2950 H   0  0  0  0  0  0  0  0  0  0  0  0
  142.2424  153.1754  136.5721 H   0  0  0  0  0  0  0  0  0  0  0  0
  1  2  1  0
  2  3  1  0
  3  4  2  0
  3  5  1  0
  2  6  1  0
  6  7  2  0
  7  8  1  0
  8  9  2  0
  9 10  1  0
 10 11  2  0
 11 12  1  0
 12 13  1  0
 12 14  2  0
 11 15  1  0
 15 16  1  0
 16 17  2  0
 16 18  1  0
 15 19  1  0
 19 20  2  0
 20  6  1  0
 19  9  1  0
  1 21  1  0
  1 22  1  0
  1 23  1  0
  2 24  1  6
  7 25  1  0
  8 26  1  0
 10 27  1  0
 13 28  1  0
 20 29  1  0
M  CHG  3   5  -1  13  -1  18  -1
M  END
>  <UniqueID>  (53) 
53

>  <SMILES>  (53) 
C[C@@H](C(=O)[O-])c1ccc2cc(C([NH-])=O)n(C(=O)[O-])c2c1

>  <Energy>  (53) 
67.62169123249656

>  <Genealogy>  (53) 
CC(C(=O)[O-])c1ccc2cc(C([NH-])=O)n(C(=O)[O-])c2c1 (protonated)
C[C@@H](C(=O)[O-])c1ccc2cc(C([NH-])=O)n(C(=O)[O-])c2c1 (chirality)
C[C@@H](C(=O)[O-])c1ccc2cc(C([NH-])=O)n(C(=O)[O-])c2c1 (3D coordinates assigned)
C[C@@H](C(=O)[O-])c1ccc2cc(C([NH-])=O)n(C(=O)[O-])c2c1 (optimized conformer: 67.62169123249656 kcal/mol)

>  <smiles>  (53) 
CC(C(=O)O)c1ccc2cc(C(N)=O)n(C(=O)O)c2c1

>  <score_type>  (53) 
oracle

>  <origin>  (53) 
adg

>  <m_score__min__energy>  (53) 
-6.4800000000000004

>  <m_primary>  (53) 
energy

$$$$
53:0
     RDKit          3D

 44 45  0  0  0  0  0  0  0  0999 V2000
  141.2220  156.5740  136.6310 C   0  0  0  0  0  0  0  0  0  0  0  0
  141.9210  157.4730  135.7050 N   0  0  0  0  0  0  0  0  0  0  0  0
  141.7100  158.9210  135.8000 C   0  0  0  0  0  0  0  0  0  0  0  0
  142.8790  156.9060  134.7820 C   0  0  0  0  0  0  0  0  0  0  0  0
  143.4030  155.7920  135.0500 O   0  0  0  0  0  0  0  0  0  0  0  0
  143.2810  157.5870  133.5270 C   0  0  0  0  0  0  0  0  0  0  0  0
  142.5880  157.4720  132.4820 O   0  0  0  0  0  0  0  0  0  0  0  0
  144.4830  158.3710  133.4800 N   0  0  0  0  0  0  0  0  0  0  0  0
  144.5810  159.7240  133.3670 C   0  0  0  0  0  0  0  0  0  0  0  0
  143.4480  160.6730  133.3900 C   0  0  0  0  0  0  0  0  0  0  0  0
  142.1470  160.2350  133.0040 N   0  0  0  0  0  0  0  0  0  0  0  0
  143.6210  161.8720  133.7290 O   0  0  0  0  0  0  0  0  0  0  0  0
  145.9180  160.1090  133.2700 C   0  0  0  0  0  0  0  0  0  0  0  0
  146.6380  158.9360  133.3210 C   0  0  0  0  0  0  0  0  0  0  0  0
  148.0110  158.7240  133.2540 C   0  0  0  0  0  0  0  0  0  0  0  0
  148.4760  157.3990  133.3120 C   0  0  0  0  0  0  0  0  0  0  0  0
  147.5710  156.3100  133.4250 C   0  0  0  0  0  0  0  0  0  0  0  0
  148.0680  154.9530  133.4900 N   0  0  0  0  0  0  0  0  0  0  0  0
  149.1560  154.5390  132.5970 C   0  0  0  0  0  0  0  0  0  0  0  0
  147.4860  153.9700  134.4230 C   0  0  0  0  0  0  0  0  0  0  0  0
  147.2710  154.5740  135.8170 C   0  0  0  0  0  0  0  0  0  0  0  0
  147.6800  153.6270  136.9040 C   0  0  0  0  0  0  0  0  0  0  0  0
  146.9730  152.6180  137.1680 O   0  0  0  0  0  0  0  0  0  0  0  0
  148.8490  153.8520  137.6200 O   0  0  0  0  0  0  0  0  0  0  0  0
  146.1800  156.5720  133.4820 C   0  0  0  0  0  0  0  0  0  0  0  0
  145.7500  157.9020  133.4430 C   0  0  0  0  0  0  0  0  0  0  0  0
  141.4490  156.8660  137.6670 H   0  0  0  0  0  0  0  0  0  0  0  0
  140.1375  156.6425  136.4600 H   0  0  0  0  0  0  0  0  0  0  0  0
  141.5556  155.5399  136.4600 H   0  0  0  0  0  0  0  0  0  0  0  0
  141.6669  159.2166  136.8587 H   0  0  0  0  0  0  0  0  0  0  0  0
  142.5412  159.4458  135.3063 H   0  0  0  0  0  0  0  0  0  0  0  0
  140.7636  159.1868  135.3063 H   0  0  0  0  0  0  0  0  0  0  0  0
  142.0190  159.5530  132.2230 H   0  0  0  0  0  0  0  0  0  0  0  0
  146.3130  161.1311  133.1734 H   0  0  0  0  0  0  0  0  0  0  0  0
  148.7111  159.5671  133.1586 H   0  0  0  0  0  0  0  0  0  0  0  0
  149.5574  157.2022  133.2692 H   0  0  0  0  0  0  0  0  0  0  0  0
  150.0179  154.2111  133.1967 H   0  0  0  0  0  0  0  0  0  0  0  0
  148.8135  153.7084  131.9624 H   0  0  0  0  0  0  0  0  0  0  0  0
  149.4523  155.3872  131.9624 H   0  0  0  0  0  0  0  0  0  0  0  0
  146.5170  153.6320  134.0270 H   0  0  0  0  0  0  0  0  0  0  0  0
  148.1870  153.1275  134.5171 H   0  0  0  0  0  0  0  0  0  0  0  0
  147.8687  155.4935  135.9025 H   0  0  0  0  0  0  0  0  0  0  0  0
  146.1983  154.7868  135.9352 H   0  0  0  0  0  0  0  0  0  0  0  0
  145.4548  155.7481  133.5552 H   0  0  0  0  0  0  0  0  0  0  0  0
  1  2  1  0
  2  3  1  0
  2  4  1  0
  4  5  2  0
  4  6  1  0
  6  7  2  0
  6  8  1  0
  8  9  1  0
  9 10  1  0
 10 11  1  0
 10 12  2  0
  9 13  2  0
 13 14  1  0
 14 15  2  0
 15 16  1  0
 16 17  2  0
 17 18  1  0
 18 19  1  0
 18 20  1  0
 20 21  1  0
 21 22  1  0
 22 23  2  0
 22 24  1  0
 17 25  1  0
 25 26  2  0
 26  8  1  0
 26 14  1  0
  1 27  1  0
  1 28  1  0
  1 29  1  0
  3 30  1  0
  3 31  1  0
  3 32  1  0
 11 33  1  0
 13 34  1  0
 15 35  1  0
 16 36  1  0
 19 37  1  0
 19 38  1  0
 19 39  1  0
 20 40  1  0
 20 41  1  0
 21 42  1  0
 21 43  1  0
 25 44  1  0
M  CHG  2  11  -1  24  -1
M  END
>  <UniqueID>  (54) 
54

>  <SMILES>  (54) 
CN(C)C(=O)C(=O)n1c(C([NH-])=O)cc2ccc(N(C)CCC(=O)[O-])cc21

>  <Energy>  (54) 
82.88701119999138

>  <Genealogy>  (54) 
CN(C)C(=O)C(=O)n1c(C([NH-])=O)cc2ccc(N(C)CCC(=O)[O-])cc21 (protonated)
CN(C)C(=O)C(=O)n1c(C([NH-])=O)cc2ccc(N(C)CCC(=O)[O-])cc21 (3D coordinates assigned)
CN(C)C(=O)C(=O)n1c(C([NH-])=O)cc2ccc(N(C)CCC(=O)[O-])cc21 (optimized conformer: 82.88701119999138 kcal/mol)

>  <smiles>  (54) 
CN(C)C(=O)C(=O)n1c(C(N)=O)cc2ccc(N(C)CCC(=O)O)cc21

>  <score_type>  (54) 
oracle

>  <origin>  (54) 
adg

>  <m_score__min__energy>  (54) 
-6.9000000000000004

>  <m_primary>  (54) 
energy

$$$$
54:0
     RDKit          3D

 40 41  0  0  0  0  0  0  0  0999 V2000
  147.9080  152.6490  133.6350 N   0  0  0  0  0  0  0  0  0  0  0  0
  148.4410  153.8390  133.0480 C   0  0  0  0  0  0  0  0  0  0  0  0
  149.6060  153.8220  132.5700 O   0  0  0  0  0  0  0  0  0  0  0  0
  147.6760  155.1040  133.0620 C   0  0  0  0  0  0  0  0  0  0  0  0
  148.2400  156.3350  132.7450 C   0  0  0  0  0  0  0  0  0  0  0  0
  147.2500  157.2600  132.9880 C   0  0  0  0  0  0  0  0  0  0  0  0
  147.2630  158.6430  132.8350 C   0  0  0  0  0  0  0  0  0  0  0  0
  146.0890  159.3520  133.1390 C   0  0  0  0  0  0  0  0  0  0  0  0
  144.9280  158.6740  133.5950 C   0  0  0  0  0  0  0  0  0  0  0  0
  143.6540  159.4400  133.8470 C   0  0  0  0  0  0  0  0  0  0  0  0
  142.6670  159.0550  132.9570 F   0  0  0  0  0  0  0  0  0  0  0  0
  143.8640  160.8000  133.6980 F   0  0  0  0  0  0  0  0  0  0  0  0
  143.2220  159.1900  135.1370 F   0  0  0  0  0  0  0  0  0  0  0  0
  144.9480  157.2640  133.7110 C   0  0  0  0  0  0  0  0  0  0  0  0
  146.1390  156.5840  133.4220 C   0  0  0  0  0  0  0  0  0  0  0  0
  146.3830  155.2530  133.4670 N   0  0  0  0  0  0  0  0  0  0  0  0
  145.4390  154.2130  133.7730 C   0  0  0  0  0  0  0  0  0  0  0  0
  145.2880  153.2440  132.9770 O   0  0  0  0  0  0  0  0  0  0  0  0
  144.7030  154.2700  134.9650 O   0  0  0  0  0  0  0  0  0  0  0  0
  145.2620  153.9370  136.2340 C   0  0  0  0  0  0  0  0  0  0  0  0
  146.6000  153.4680  136.0780 O   0  0  0  0  0  0  0  0  0  0  0  0
  147.7150  154.2250  136.4600 C   0  0  0  0  0  0  0  0  0  0  0  0
  147.9040  155.3720  135.9690 O   0  0  0  0  0  0  0  0  0  0  0  0
  148.7400  153.6630  137.4060 C   0  0  0  0  0  0  0  0  0  0  0  0
  148.1360  153.0760  138.6890 C   0  0  0  0  0  0  0  0  0  0  0  0
  148.1060  154.0750  139.8090 C   0  0  0  0  0  0  0  0  0  0  0  0
  147.0020  154.4620  140.2770 O   0  0  0  0  0  0  0  0  0  0  0  0
  149.2890  154.5510  140.3580 O   0  0  0  0  0  0  0  0  0  0  0  0
  146.9920  152.6610  134.1330 H   0  0  0  0  0  0  0  0  0  0  0  0
  148.4620  151.7650  133.6190 H   0  0  0  0  0  0  0  0  0  0  0  0
  149.2590  156.5282  132.3785 H   0  0  0  0  0  0  0  0  0  0  0  0
  148.1659  159.1657  132.4863 H   0  0  0  0  0  0  0  0  0  0  0  0
  146.0690  160.4456  133.0224 H   0  0  0  0  0  0  0  0  0  0  0  0
  144.0479  156.7132  134.0214 H   0  0  0  0  0  0  0  0  0  0  0  0
  145.2632  154.8304  136.8757 H   0  0  0  0  0  0  0  0  0  0  0  0
  144.6560  153.1429  136.6946 H   0  0  0  0  0  0  0  0  0  0  0  0
  149.2932  152.8669  136.8863 H   0  0  0  0  0  0  0  0  0  0  0  0
  149.3911  154.4965  137.7082 H   0  0  0  0  0  0  0  0  0  0  0  0
  147.1072  152.7483  138.4787 H   0  0  0  0  0  0  0  0  0  0  0  0
  148.7676  152.2326  139.0050 H   0  0  0  0  0  0  0  0  0  0  0  0
  1  2  1  0
  2  3  2  0
  2  4  1  0
  4  5  2  0
  5  6  1  0
  6  7  2  0
  7  8  1  0
  8  9  2  0
  9 10  1  0
 10 11  1  0
 10 12  1  0
 10 13  1  0
  9 14  1  0
 14 15  2  0
 15 16  1  0
 16 17  1  0
 17 18  2  0
 17 19  1  0
 19 20  1  0
 20 21  1  0
 21 22  1  0
 22 23  2  0
 22 24  1  0
 24 25  1  0
 25 26  1  0
 26 27  2  0
 26 28  1  0
 16  4  1  0
 15  6  1  0
  1 29  1  0
  1 30  1  0
  5 31  1  0
  7 32  1  0
  8 33  1  0
 14 34  1  0
 20 35  1  0
 20 36  1  0
 24 37  1  0
 24 38  1  0
 25 39  1  0
 25 40  1  0
M  CHG  1  28  -1
M  END
>  <UniqueID>  (55) 
55

>  <SMILES>  (55) 
NC(=O)c1cc2ccc(C(F)(F)F)cc2n1C(=O)OCOC(=O)CCC(=O)[O-]

>  <Energy>  (55) 
73.12272214155328

>  <Genealogy>  (55) 
NC(=O)c1cc2ccc(C(F)(F)F)cc2n1C(=O)OCOC(=O)CCC(=O)[O-] (protonated)
NC(=O)c1cc2ccc(C(F)(F)F)cc2n1C(=O)OCOC(=O)CCC(=O)[O-] (3D coordinates assigned)
NC(=O)c1cc2ccc(C(F)(F)F)cc2n1C(=O)OCOC(=O)CCC(=O)[O-] (optimized conformer: 73.12272214155328 kcal/mol)

>  <smiles>  (55) 
NC(=O)c1cc2ccc(C(F)(F)F)cc2n1C(=O)OCOC(=O)CCC(=O)O

>  <score_type>  (55) 
oracle

>  <origin>  (55) 
adg

>  <m_score__min__energy>  (55) 
-6.5199999999999996

>  <m_primary>  (55) 
energy

$$$$
55:0
     RDKit          3D

 44 46  0  0  0  0  0  0  0  0999 V2000
  140.6470  158.7280  132.2740 C   0  0  0  0  0  0  0  0  0  0  0  0
  141.4640  157.9380  133.3150 C   0  0  0  0  0  0  0  0  0  0  0  0
  140.9550  156.4880  133.3470 C   0  0  0  0  0  0  0  0  0  0  0  0
  141.3030  158.5560  134.7160 C   0  0  0  0  0  0  0  0  0  0  0  0
  142.8470  157.8910  132.9390 O   0  0  0  0  0  0  0  0  0  0  0  0
  143.9340  157.6360  133.7890 C   0  0  0  0  0  0  0  0  0  0  0  0
  143.8200  156.8510  134.7690 O   0  0  0  0  0  0  0  0  0  0  0  0
  145.1820  158.3040  133.5530 N   0  0  0  0  0  0  0  0  0  0  0  0
  145.4200  159.6450  133.4880 C   0  0  0  0  0  0  0  0  0  0  0  0
  144.4530  160.7160  133.8090 C   0  0  0  0  0  0  0  0  0  0  0  0
  143.1030  160.6420  133.3620 N   0  0  0  0  0  0  0  0  0  0  0  0
  144.8130  161.6860  134.5280 O   0  0  0  0  0  0  0  0  0  0  0  0
  146.7510  159.8880  133.1540 C   0  0  0  0  0  0  0  0  0  0  0  0
  147.3290  158.6460  133.0260 C   0  0  0  0  0  0  0  0  0  0  0  0
  148.6360  158.2940  132.6980 C   0  0  0  0  0  0  0  0  0  0  0  0
  148.9470  156.9260  132.6110 C   0  0  0  0  0  0  0  0  0  0  0  0
  147.9530  155.9470  132.8450 C   0  0  0  0  0  0  0  0  0  0  0  0
  148.2760  154.5600  132.7450 N   0  0  0  0  0  0  0  0  0  0  0  0
  149.4110  153.7370  132.2850 C   0  0  0  0  0  0  0  0  0  0  0  0
  148.7750  152.4140  132.5760 C   0  0  0  0  0  0  0  0  0  0  0  0
  149.4340  151.6720  133.6630 C   0  0  0  0  0  0  0  0  0  0  0  0
  149.9530  151.0890  134.5170 N   0  0  0  0  0  0  0  0  0  0  0  0
  147.6340  153.2650  133.0420 C   0  0  0  0  0  0  0  0  0  0  0  0
  146.6390  156.3380  133.1740 C   0  0  0  0  0  0  0  0  0  0  0  0
  146.3610  157.7070  133.2720 C   0  0  0  0  0  0  0  0  0  0  0  0
  139.9490  159.4029  132.7911 H   0  0  0  0  0  0  0  0  0  0  0  0
  141.3287  159.3181  131.6440 H   0  0  0  0  0  0  0  0  0  0  0  0
  140.0801  158.0268  131.6440 H   0  0  0  0  0  0  0  0  0  0  0  0
  140.8407  156.1625  134.3915 H   0  0  0  0  0  0  0  0  0  0  0  0
  139.9826  156.4294  132.8362 H   0  0  0  0  0  0  0  0  0  0  0  0
  141.6775  155.8344  132.8362 H   0  0  0  0  0  0  0  0  0  0  0  0
  141.5026  157.7900  135.4798 H   0  0  0  0  0  0  0  0  0  0  0  0
  142.0148  159.3862  134.8346 H   0  0  0  0  0  0  0  0  0  0  0  0
  140.2766  158.9333  134.8346 H   0  0  0  0  0  0  0  0  0  0  0  0
  142.8320  160.0200  132.5680 H   0  0  0  0  0  0  0  0  0  0  0  0
  147.2367  160.8659  133.0209 H   0  0  0  0  0  0  0  0  0  0  0  0
  149.4009  159.0625  132.5128 H   0  0  0  0  0  0  0  0  0  0  0  0
  149.9713  156.6142  132.3590 H   0  0  0  0  0  0  0  0  0  0  0  0
  149.6312  153.8765  131.2163 H   0  0  0  0  0  0  0  0  0  0  0  0
  150.3912  153.9337  132.7438 H   0  0  0  0  0  0  0  0  0  0  0  0
  148.6798  151.6002  131.8420 H   0  0  0  0  0  0  0  0  0  0  0  0
  146.7161  153.1019  132.4582 H   0  0  0  0  0  0  0  0  0  0  0  0
  147.2768  153.1061  134.0702 H   0  0  0  0  0  0  0  0  0  0  0  0
  145.8535  155.5881  133.3489 H   0  0  0  0  0  0  0  0  0  0  0  0
  1  2  1  0
  2  3  1  0
  2  4  1  0
  2  5  1  0
  5  6  1  0
  6  7  2  0
  6  8  1  0
  8  9  1  0
  9 10  1  0
 10 11  1  0
 10 12  2  0
  9 13  2  0
 13 14  1  0
 14 15  2  0
 15 16  1  0
 16 17  2  0
 17 18  1  0
 18 19  1  0
 19 20  1  0
 20 21  1  0
 21 22  3  0
 20 23  1  0
 17 24  1  0
 24 25  2  0
 25  8  1  0
 25 14  1  0
 23 18  1  0
  1 26  1  0
  1 27  1  0
  1 28  1  0
  3 29  1  0
  3 30  1  0
  3 31  1  0
  4 32  1  0
  4 33  1  0
  4 34  1  0
 11 35  1  0
 13 36  1  0
 15 37  1  0
 16 38  1  0
 19 39  1  0
 19 40  1  0
 20 41  1  0
 23 42  1  0
 23 43  1  0
 24 44  1  0
M  CHG  1  11  -1
M  END
>  <UniqueID>  (56) 
56

>  <SMILES>  (56) 
CC(C)(C)OC(=O)n1c(C([NH-])=O)cc2ccc(N3CC(C#N)C3)cc21

>  <Energy>  (56) 
122.60472633375026

>  <Genealogy>  (56) 
CC(C)(C)OC(=O)n1c(C([NH-])=O)cc2ccc(N3CC(C#N)C3)cc21 (protonated)
CC(C)(C)OC(=O)n1c(C([NH-])=O)cc2ccc(N3CC(C#N)C3)cc21 (3D coordinates assigned)
CC(C)(C)OC(=O)n1c(C([NH-])=O)cc2ccc(N3CC(C#N)C3)cc21 (nonaromatic ring conformer: 122.60472633375026 kcal/mol)

>  <smiles>  (56) 
CC(C)(C)OC(=O)n1c(C(N)=O)cc2ccc(N3CC(C#N)C3)cc21

>  <score_type>  (56) 
oracle

>  <origin>  (56) 
adg

>  <m_score__min__energy>  (56) 
-7.7800000000000002

>  <m_primary>  (56) 
energy

$$$$
56:0
     RDKit          3D

 28 29  0  0  0  0  0  0  0  0999 V2000
  149.7350  157.4750  132.1150 N   0  0  0  0  0  0  0  0  0  0  0  0
  149.2280  158.8000  132.2590 C   0  0  0  0  0  0  0  0  0  0  0  0
  149.9710  159.7790  131.9840 O   0  0  0  0  0  0  0  0  0  0  0  0
  147.8570  159.0110  132.7670 C   0  0  0  0  0  0  0  0  0  0  0  0
  147.3090  160.2700  133.0010 C   0  0  0  0  0  0  0  0  0  0  0  0
  146.0030  160.0380  133.3690 C   0  0  0  0  0  0  0  0  0  0  0  0
  145.0030  160.9330  133.7330 C   0  0  0  0  0  0  0  0  0  0  0  0
  143.7510  160.4090  134.0980 C   0  0  0  0  0  0  0  0  0  0  0  0
  143.5160  159.0090  134.0810 C   0  0  0  0  0  0  0  0  0  0  0  0
  142.1880  158.4580  134.5320 C   0  0  0  0  0  0  0  0  0  0  0  0
  141.3130  158.4490  133.4610 F   0  0  0  0  0  0  0  0  0  0  0  0
  141.6530  159.2390  135.5420 F   0  0  0  0  0  0  0  0  0  0  0  0
  142.3300  157.1690  135.0100 F   0  0  0  0  0  0  0  0  0  0  0  0
  144.5680  158.1320  133.7270 C   0  0  0  0  0  0  0  0  0  0  0  0
  145.7990  158.6830  133.3550 C   0  0  0  0  0  0  0  0  0  0  0  0
  146.9290  158.0360  132.9940 N   0  0  0  0  0  0  0  0  0  0  0  0
  147.1070  156.6130  132.9400 C   0  0  0  0  0  0  0  0  0  0  0  0
  147.0480  156.0090  131.8370 O   0  0  0  0  0  0  0  0  0  0  0  0
  147.2950  155.8520  134.1470 C   0  0  0  0  0  0  0  0  0  0  0  0
  147.4540  155.2180  135.1600 C   0  0  0  0  0  0  0  0  0  0  0  0
  147.6450  154.4670  136.3680 C   0  0  0  0  0  0  0  0  0  0  0  0
  148.5250  154.8180  137.1940 O   0  0  0  0  0  0  0  0  0  0  0  0
  146.8590  153.3510  136.6220 O   0  0  0  0  0  0  0  0  0  0  0  0
  149.1170  156.6940  131.8040 H   0  0  0  0  0  0  0  0  0  0  0  0
  147.8131  161.2435  132.9108 H   0  0  0  0  0  0  0  0  0  0  0  0
  145.1862  162.0176  133.7352 H   0  0  0  0  0  0  0  0  0  0  0  0
  142.9434  161.0919  134.4005 H   0  0  0  0  0  0  0  0  0  0  0  0
  144.4215  157.0419  133.7438 H   0  0  0  0  0  0  0  0  0  0  0  0
  1  2  1  0
  2  3  2  0
  2  4  1  0
  4  5  2  0
  5  6  1  0
  6  7  2  0
  7  8  1  0
  8  9  2  0
  9 10  1  0
 10 11  1  0
 10 12  1  0
 10 13  1  0
  9 14  1  0
 14 15  2  0
 15 16  1  0
 16 17  1  0
 17 18  2  0
 17 19  1  0
 19 20  3  0
 20 21  1  0
 21 22  2  0
 21 23  1  0
 16  4  1  0
 15  6  1  0
  1 24  1  0
  5 25  1  0
  7 26  1  0
  8 27  1  0
 14 28  1  0
M  CHG  2   1  -1  23  -1
M  END
>  <UniqueID>  (57) 
57

>  <SMILES>  (57) 
[NH-]C(=O)c1cc2ccc(C(F)(F)F)cc2n1C(=O)C#CC(=O)[O-]

>  <Energy>  (57) 
64.57660695827065

>  <Genealogy>  (57) 
[NH-]C(=O)c1cc2ccc(C(F)(F)F)cc2n1C(=O)C#CC(=O)[O-] (protonated)
[NH-]C(=O)c1cc2ccc(C(F)(F)F)cc2n1C(=O)C#CC(=O)[O-] (3D coordinates assigned)
[NH-]C(=O)c1cc2ccc(C(F)(F)F)cc2n1C(=O)C#CC(=O)[O-] (optimized conformer: 64.57660695827065 kcal/mol)

>  <smiles>  (57) 
NC(=O)c1cc2ccc(C(F)(F)F)cc2n1C(=O)C#CC(=O)O

>  <score_type>  (57) 
oracle

>  <origin>  (57) 
adg

>  <m_score__min__energy>  (57) 
-6.7199999999999998

>  <m_primary>  (57) 
energy

$$$$
57:0
     RDKit          3D

 32 34  0  0  0  0  0  0  0  0999 V2000
  142.1680  157.2340  135.4910 C   0  0  0  0  0  0  0  0  0  0  0  0
  143.4620  157.2420  134.9010 O   0  0  0  0  0  0  0  0  0  0  0  0
  143.7350  157.8800  133.6870 C   0  0  0  0  0  0  0  0  0  0  0  0
  142.8820  157.8690  132.7580 O   0  0  0  0  0  0  0  0  0  0  0  0
  145.0000  158.5310  133.4920 N   0  0  0  0  0  0  0  0  0  0  0  0
  145.2660  159.8670  133.5540 C   0  0  0  0  0  0  0  0  0  0  0  0
  144.2650  160.9470  133.6640 C   0  0  0  0  0  0  0  0  0  0  0  0
  142.8890  160.7040  133.3810 N   0  0  0  0  0  0  0  0  0  0  0  0
  144.6350  162.1140  133.9650 O   0  0  0  0  0  0  0  0  0  0  0  0
  146.6320  160.0990  133.4150 C   0  0  0  0  0  0  0  0  0  0  0  0
  147.1990  158.8560  133.2550 C   0  0  0  0  0  0  0  0  0  0  0  0
  148.5320  158.4970  133.0860 C   0  0  0  0  0  0  0  0  0  0  0  0
  148.8380  157.1300  132.9750 C   0  0  0  0  0  0  0  0  0  0  0  0
  147.8140  156.1490  133.0440 C   0  0  0  0  0  0  0  0  0  0  0  0
  148.1250  154.7060  132.9410 C   0  0  0  0  0  0  0  0  0  0  0  0
  147.4010  153.6420  133.4530 C   0  0  0  0  0  0  0  0  0  0  0  0
  148.0460  152.5110  133.1230 N   0  0  0  0  0  0  0  0  0  0  0  0
  149.1290  152.9100  132.4310 C   0  0  0  0  0  0  0  0  0  0  0  0
  149.1770  154.2190  132.3220 O   0  0  0  0  0  0  0  0  0  0  0  0
  146.4710  156.5570  133.2170 C   0  0  0  0  0  0  0  0  0  0  0  0
  146.1940  157.9270  133.3050 C   0  0  0  0  0  0  0  0  0  0  0  0
  142.2646  157.2346  136.5867 H   0  0  0  0  0  0  0  0  0  0  0  0
  141.6137  158.1287  135.1713 H   0  0  0  0  0  0  0  0  0  0  0  0
  141.6248  156.3325  135.1713 H   0  0  0  0  0  0  0  0  0  0  0  0
  142.6050  160.0200  132.6450 H   0  0  0  0  0  0  0  0  0  0  0  0
  147.1482  161.0703  133.4300 H   0  0  0  0  0  0  0  0  0  0  0  0
  149.3229  159.2601  133.0406 H   0  0  0  0  0  0  0  0  0  0  0  0
  149.8828  156.8164  132.8331 H   0  0  0  0  0  0  0  0  0  0  0  0
  146.4653  153.7109  134.0271 H   0  0  0  0  0  0  0  0  0  0  0  0
  147.7680  151.5320  133.3560 H   0  0  0  0  0  0  0  0  0  0  0  0
  149.8803  152.2261  132.0092 H   0  0  0  0  0  0  0  0  0  0  0  0
  145.6618  155.8147  133.2810 H   0  0  0  0  0  0  0  0  0  0  0  0
  1  2  1  0
  2  3  1  0
  3  4  2  0
  3  5  1  0
  5  6  1  0
  6  7  1  0
  7  8  1  0
  7  9  2  0
  6 10  2  0
 10 11  1  0
 11 12  2  0
 12 13  1  0
 13 14  2  0
 14 15  1  0
 15 16  2  0
 16 17  1  0
 17 18  2  0
 18 19  1  0
 14 20  1  0
 20 21  2  0
 21  5  1  0
 21 11  1  0
 19 15  1  0
  1 22  1  0
  1 23  1  0
  1 24  1  0
  8 25  1  0
 10 26  1  0
 12 27  1  0
 13 28  1  0
 16 29  1  0
 17 30  1  0
 18 31  1  0
 20 32  1  0
M  CHG  2   8  -1  17   1
M  END
>  <UniqueID>  (58) 
58

>  <SMILES>  (58) 
COC(=O)n1c(C([NH-])=O)cc2ccc(-c3c[nH+]co3)cc21

>  <Energy>  (58) 
103.49315658853004

>  <Genealogy>  (58) 
COC(=O)n1c(C([NH-])=O)cc2ccc(-c3c[nH+]co3)cc21 (protonated)
COC(=O)n1c(C([NH-])=O)cc2ccc(-c3c[nH+]co3)cc21 (3D coordinates assigned)
COC(=O)n1c(C([NH-])=O)cc2ccc(-c3c[nH+]co3)cc21 (optimized conformer: 103.49315658853004 kcal/mol)

>  <smiles>  (58) 
COC(=O)n1c(C(N)=O)cc2ccc(-c3cnco3)cc21

>  <score_type>  (58) 
oracle

>  <origin>  (58) 
adg

>  <m_score__min__energy>  (58) 
-5.9000000000000004

>  <m_primary>  (58) 
energy

$$$$
58:0
     RDKit          3D

 34 35  0  0  0  0  0  0  0  0999 V2000
  142.0380  156.8110  135.1880 C   0  0  0  0  0  0  0  0  0  0  0  0
  141.8650  158.2810  134.7970 C   0  0  1  0  0  0  0  0  0  0  0  0
  141.3590  159.0590  135.9390 C   0  0  0  0  0  0  0  0  0  0  0  0
  140.9600  159.6700  136.8370 N   0  0  0  0  0  0  0  0  0  0  0  0
  143.1670  158.8640  134.2930 C   0  0  0  0  0  0  0  0  0  0  0  0
  143.3150  160.2660  134.1140 C   0  0  0  0  0  0  0  0  0  0  0  0
  144.5340  160.8100  133.6750 C   0  0  0  0  0  0  0  0  0  0  0  0
  145.5840  159.9360  133.4190 C   0  0  0  0  0  0  0  0  0  0  0  0
  146.8720  160.1960  133.0110 C   0  0  0  0  0  0  0  0  0  0  0  0
  147.4930  158.9510  132.9290 C   0  0  0  0  0  0  0  0  0  0  0  0
  148.8750  158.7610  132.4400 C   0  0  0  0  0  0  0  0  0  0  0  0
  149.3780  157.4440  132.2320 N   0  0  0  0  0  0  0  0  0  0  0  0
  149.6300  159.7490  132.2380 O   0  0  0  0  0  0  0  0  0  0  0  0
  146.6240  157.9610  133.2810 N   0  0  0  0  0  0  0  0  0  0  0  0
  146.8860  156.5510  133.3820 C   0  0  0  0  0  0  0  0  0  0  0  0
  146.9740  155.8510  132.3370 O   0  0  0  0  0  0  0  0  0  0  0  0
  147.0680  155.9680  134.6410 O   0  0  0  0  0  0  0  0  0  0  0  0
  147.3730  154.5880  134.8290 C   0  0  0  0  0  0  0  0  0  0  0  0
  146.4800  153.9960  135.8720 C   0  0  0  0  0  0  0  0  0  0  0  0
  145.2890  154.3890  135.9850 O   0  0  0  0  0  0  0  0  0  0  0  0
  146.9720  153.0280  136.7380 O   0  0  0  0  0  0  0  0  0  0  0  0
  145.4590  158.5800  133.5750 C   0  0  0  0  0  0  0  0  0  0  0  0
  144.2640  158.0100  134.0280 C   0  0  0  0  0  0  0  0  0  0  0  0
  142.0485  156.7220  136.2843 H   0  0  0  0  0  0  0  0  0  0  0  0
  141.2029  156.2224  134.7803 H   0  0  0  0  0  0  0  0  0  0  0  0
  142.9869  156.4324  134.7803 H   0  0  0  0  0  0  0  0  0  0  0  0
  141.1293  158.3350  133.9810 H   0  0  0  0  0  0  0  0  0  0  0  0
  142.4654  160.9332  134.3215 H   0  0  0  0  0  0  0  0  0  0  0  0
  144.6537  161.8949  133.5381 H   0  0  0  0  0  0  0  0  0  0  0  0
  147.3173  161.1784  132.7952 H   0  0  0  0  0  0  0  0  0  0  0  0
  148.8230  156.7350  131.7030 H   0  0  0  0  0  0  0  0  0  0  0  0
  147.2273  154.0517  133.8797 H   0  0  0  0  0  0  0  0  0  0  0  0
  148.4184  154.4945  135.1583 H   0  0  0  0  0  0  0  0  0  0  0  0
  144.1792  156.9231  134.1748 H   0  0  0  0  0  0  0  0  0  0  0  0
  1  2  1  0
  2  3  1  0
  3  4  3  0
  2  5  1  0
  5  6  2  0
  6  7  1  0
  7  8  2  0
  8  9  1  0
  9 10  2  0
 10 11  1  0
 11 12  1  0
 11 13  2  0
 10 14  1  0
 14 15  1  0
 15 16  2  0
 15 17  1  0
 17 18  1  0
 18 19  1  0
 19 20  2  0
 19 21  1  0
 14 22  1  0
 22 23  2  0
 23  5  1  0
 22  8  1  0
  1 24  1  0
  1 25  1  0
  1 26  1  0
  2 27  1  6
  6 28  1  0
  7 29  1  0
  9 30  1  0
 12 31  1  0
 18 32  1  0
 18 33  1  0
 23 34  1  0
M  CHG  2  12  -1  21  -1
M  END
>  <UniqueID>  (59) 
59

>  <SMILES>  (59) 
C[C@@H](C#N)c1ccc2cc(C([NH-])=O)n(C(=O)OCC(=O)[O-])c2c1

>  <Energy>  (59) 
68.17402330386321

>  <Genealogy>  (59) 
CC(C#N)c1ccc2cc(C([NH-])=O)n(C(=O)OCC(=O)[O-])c2c1 (protonated)
C[C@@H](C#N)c1ccc2cc(C([NH-])=O)n(C(=O)OCC(=O)[O-])c2c1 (chirality)
C[C@@H](C#N)c1ccc2cc(C([NH-])=O)n(C(=O)OCC(=O)[O-])c2c1 (3D coordinates assigned)
C[C@@H](C#N)c1ccc2cc(C([NH-])=O)n(C(=O)OCC(=O)[O-])c2c1 (optimized conformer: 68.17402330386321 kcal/mol)

>  <smiles>  (59) 
CC(C#N)c1ccc2cc(C(N)=O)n(C(=O)OCC(=O)O)c2c1

>  <score_type>  (59) 
oracle

>  <origin>  (59) 
adg

>  <m_score__min__energy>  (59) 
-6.8099999999999996

>  <m_primary>  (59) 
energy

$$$$
59:0
     RDKit          3D

 35 36  0  0  0  0  0  0  0  0999 V2000
  149.0180  154.5160  132.6100 C   0  0  0  0  0  0  0  0  0  0  0  0
  147.5620  154.9680  132.6240 C   0  0  0  0  0  0  0  0  0  0  0  0
  147.4650  156.4460  132.8870 C   0  0  0  0  0  0  0  0  0  0  0  0
  148.6310  157.2520  132.8580 C   0  0  0  0  0  0  0  0  0  0  0  0
  148.5490  158.6370  133.0830 C   0  0  0  0  0  0  0  0  0  0  0  0
  147.2900  159.1870  133.3130 C   0  0  0  0  0  0  0  0  0  0  0  0
  146.9270  160.4880  133.5750 C   0  0  0  0  0  0  0  0  0  0  0  0
  145.5410  160.4630  133.7180 C   0  0  0  0  0  0  0  0  0  0  0  0
  144.7260  161.6790  133.9210 C   0  0  0  0  0  0  0  0  0  0  0  0
  143.3130  161.6540  133.7330 N   0  0  0  0  0  0  0  0  0  0  0  0
  145.2890  162.7670  134.2190 O   0  0  0  0  0  0  0  0  0  0  0  0
  145.0670  159.1950  133.5610 N   0  0  0  0  0  0  0  0  0  0  0  0
  143.7150  158.7320  133.7010 C   0  0  0  0  0  0  0  0  0  0  0  0
  143.1400  158.1720  132.7280 O   0  0  0  0  0  0  0  0  0  0  0  0
  143.0410  158.9380  134.9120 O   0  0  0  0  0  0  0  0  0  0  0  0
  141.6900  159.2890  135.0340 C   0  0  0  0  0  0  0  0  0  0  0  0
  141.0000  159.6010  134.0260 O   0  0  0  0  0  0  0  0  0  0  0  0
  141.0740  159.3320  136.3950 C   0  0  0  0  0  0  0  0  0  0  0  0
  140.1230  158.1910  136.5570 C   0  0  0  0  0  0  0  0  0  0  0  0
  139.0140  158.2020  135.9620 O   0  0  0  0  0  0  0  0  0  0  0  0
  140.4400  157.1370  137.4040 O   0  0  0  0  0  0  0  0  0  0  0  0
  146.1500  158.4260  133.3120 C   0  0  0  0  0  0  0  0  0  0  0  0
  146.2050  157.0420  133.1140 C   0  0  0  0  0  0  0  0  0  0  0  0
  149.3773  154.4045  133.6437 H   0  0  0  0  0  0  0  0  0  0  0  0
  149.0973  153.5509  132.0881 H   0  0  0  0  0  0  0  0  0  0  0  0
  149.6299  155.2665  132.0881 H   0  0  0  0  0  0  0  0  0  0  0  0
  147.1054  154.7444  131.6485 H   0  0  0  0  0  0  0  0  0  0  0  0
  147.0335  154.4314  133.4257 H   0  0  0  0  0  0  0  0  0  0  0  0
  149.6086  156.7893  132.6576 H   0  0  0  0  0  0  0  0  0  0  0  0
  149.4508  159.2669  133.0776 H   0  0  0  0  0  0  0  0  0  0  0  0
  147.5900  161.3622  133.6547 H   0  0  0  0  0  0  0  0  0  0  0  0
  142.7890  160.7510  133.7220 H   0  0  0  0  0  0  0  0  0  0  0  0
  141.8648  159.2590  137.1561 H   0  0  0  0  0  0  0  0  0  0  0  0
  140.5284  160.2794  136.5167 H   0  0  0  0  0  0  0  0  0  0  0  0
  145.2892  156.4330  133.1346 H   0  0  0  0  0  0  0  0  0  0  0  0
  1  2  1  0
  2  3  1  0
  3  4  2  0
  4  5  1  0
  5  6  2  0
  6  7  1  0
  7  8  2  0
  8  9  1  0
  9 10  1  0
  9 11  2  0
  8 12  1  0
 12 13  1  0
 13 14  2  0
 13 15  1  0
 15 16  1  0
 16 17  2  0
 16 18  1  0
 18 19  1  0
 19 20  2  0
 19 21  1  0
 12 22  1  0
 22 23  2  0
 23  3  1  0
 22  6  1  0
  1 24  1  0
  1 25  1  0
  1 26  1  0
  2 27  1  0
  2 28  1  0
  4 29  1  0
  5 30  1  0
  7 31  1  0
 10 32  1  0
 18 33  1  0
 18 34  1  0
 23 35  1  0
M  CHG  2  10  -1  21  -1
M  END
>  <UniqueID>  (60) 
60

>  <SMILES>  (60) 
CCc1ccc2cc(C([NH-])=O)n(C(=O)OC(=O)CC(=O)[O-])c2c1

>  <Energy>  (60) 
68.95815175714921

>  <Genealogy>  (60) 
CCc1ccc2cc(C([NH-])=O)n(C(=O)OC(=O)CC(=O)[O-])c2c1 (protonated)
CCc1ccc2cc(C([NH-])=O)n(C(=O)OC(=O)CC(=O)[O-])c2c1 (3D coordinates assigned)
CCc1ccc2cc(C([NH-])=O)n(C(=O)OC(=O)CC(=O)[O-])c2c1 (optimized conformer: 68.95815175714921 kcal/mol)

>  <smiles>  (60) 
CCc1ccc2cc(C(N)=O)n(C(=O)OC(=O)CC(=O)O)c2c1

>  <score_type>  (60) 
oracle

>  <origin>  (60) 
adg

>  <m_score__min__energy>  (60) 
-6.7999999999999998

>  <m_primary>  (60) 
energy

$$$$
60:0
     RDKit          3D

 35 37  0  0  0  0  0  0  0  0999 V2000
  139.5040  158.2030  136.8840 N   0  0  0  0  0  0  0  0  0  0  0  0
  140.8070  158.0210  136.3390 C   0  0  0  0  0  0  0  0  0  0  0  0
  141.6870  158.9060  136.5390 O   0  0  0  0  0  0  0  0  0  0  0  0
  141.1650  156.7910  135.5970 C   0  0  0  0  0  0  0  0  0  0  0  0
  142.1180  155.8780  136.0480 C   0  0  0  0  0  0  0  0  0  0  0  0
  142.0770  154.8330  135.1530 C   0  0  0  0  0  0  0  0  0  0  0  0
  142.8110  153.6520  135.1220 C   0  0  0  0  0  0  0  0  0  0  0  0
  142.5640  152.7520  134.0710 C   0  0  0  0  0  0  0  0  0  0  0  0
  141.6020  153.0500  133.0710 C   0  0  0  0  0  0  0  0  0  0  0  0
  141.3360  152.1020  132.0180 N   0  0  0  0  0  0  0  0  0  0  0  0
  141.4600  150.7320  132.5350 C   0  0  0  0  0  0  0  0  0  0  0  0
  140.5550  149.8000  131.7810 C   0  0  0  0  0  0  0  0  0  0  0  0
  140.7550  148.4130  131.8200 C   0  0  0  0  0  0  0  0  0  0  0  0
  139.9340  147.5980  131.1040 N   0  0  0  0  0  0  0  0  0  0  0  0
  138.9300  148.1060  130.3410 C   0  0  0  0  0  0  0  0  0  0  0  0
  138.7410  149.4880  130.2850 C   0  0  0  0  0  0  0  0  0  0  0  0
  139.5590  150.3040  131.0020 N   0  0  0  0  0  0  0  0  0  0  0  0
  140.8700  154.2580  133.1450 C   0  0  0  0  0  0  0  0  0  0  0  0
  141.1280  155.1300  134.2090 C   0  0  0  0  0  0  0  0  0  0  0  0
  140.5640  156.3300  134.4630 N   0  0  0  0  0  0  0  0  0  0  0  0
  139.5700  156.9850  133.6600 C   0  0  0  0  0  0  0  0  0  0  0  0
  139.4960  156.7500  132.4250 O   0  0  0  0  0  0  0  0  0  0  0  0
  138.7150  157.9220  134.2290 O   0  0  0  0  0  0  0  0  0  0  0  0
  138.7390  158.6230  136.3120 H   0  0  0  0  0  0  0  0  0  0  0  0
  142.7656  155.9730  136.9321 H   0  0  0  0  0  0  0  0  0  0  0  0
  143.5609  153.4294  135.8953 H   0  0  0  0  0  0  0  0  0  0  0  0
  143.1228  151.8057  134.0230 H   0  0  0  0  0  0  0  0  0  0  0  0
  140.3700  152.2510  131.6410 H   0  0  0  0  0  0  0  0  0  0  0  0
  142.0170  152.2490  131.2350 H   0  0  0  0  0  0  0  0  0  0  0  0
  142.5012  150.3955  132.4219 H   0  0  0  0  0  0  0  0  0  0  0  0
  141.1719  150.7255  133.5966 H   0  0  0  0  0  0  0  0  0  0  0  0
  141.5692  147.9870  132.4247 H   0  0  0  0  0  0  0  0  0  0  0  0
  138.2715  147.4331  129.7721 H   0  0  0  0  0  0  0  0  0  0  0  0
  137.9372  149.9133  129.6661 H   0  0  0  0  0  0  0  0  0  0  0  0
  140.1155  154.5064  132.3841 H   0  0  0  0  0  0  0  0  0  0  0  0
  1  2  1  0
  2  3  2  0
  2  4  1  0
  4  5  2  0
  5  6  1  0
  6  7  2  0
  7  8  1  0
  8  9  2  0
  9 10  1  0
 10 11  1  0
 11 12  1  0
 12 13  2  0
 13 14  1  0
 14 15  2  0
 15 16  1  0
 16 17  2  0
  9 18  1  0
 18 19  2  0
 19 20  1  0
 20 21  1  0
 21 22  2  0
 21 23  1  0
 20  4  1  0
 19  6  1  0
 17 12  1  0
  1 24  1  0
  5 25  1  0
  7 26  1  0
  8 27  1  0
 10 28  1  0
 10 29  1  0
 11 30  1  0
 11 31  1  0
 13 32  1  0
 15 33  1  0
 16 34  1  0
 18 35  1  0
M  CHG  3   1  -1  10   1  23  -1
M  END
>  <UniqueID>  (61) 
61

>  <SMILES>  (61) 
[NH-]C(=O)c1cc2ccc([NH2+]Cc3cnccn3)cc2n1C(=O)[O-]

>  <Energy>  (61) 
79.75933363907947

>  <Genealogy>  (61) 
[NH-]C(=O)c1cc2ccc([NH2+]Cc3cnccn3)cc2n1C(=O)[O-] (protonated)
[NH-]C(=O)c1cc2ccc([NH2+]Cc3cnccn3)cc2n1C(=O)[O-] (3D coordinates assigned)
[NH-]C(=O)c1cc2ccc([NH2+]Cc3cnccn3)cc2n1C(=O)[O-] (optimized conformer: 79.75933363907947 kcal/mol)

>  <smiles>  (61) 
NC(=O)c1cc2ccc(NCc3cnccn3)cc2n1C(=O)O

>  <score_type>  (61) 
oracle

>  <origin>  (61) 
adg

>  <m_score__min__energy>  (61) 
-7.1699999999999999

>  <m_primary>  (61) 
energy

$$$$
61:0
     RDKit          3D

 46 47  0  0  0  0  0  0  0  0999 V2000
  149.6630  160.6130  129.4910 C   0  0  0  0  0  0  0  0  0  0  0  0
  149.1030  160.6370  130.9150 C   0  0  1  0  0  0  0  0  0  0  0  0
  147.7100  160.8400  130.8960 O   0  0  0  0  0  0  0  0  0  0  0  0
  149.4550  159.3480  131.6760 C   0  0  0  0  0  0  0  0  0  0  0  0
  148.2810  158.5820  131.9400 O   0  0  0  0  0  0  0  0  0  0  0  0
  147.4000  158.8510  132.9920 C   0  0  0  0  0  0  0  0  0  0  0  0
  147.6320  159.8200  133.7630 O   0  0  0  0  0  0  0  0  0  0  0  0
  146.2570  157.9980  133.2200 N   0  0  0  0  0  0  0  0  0  0  0  0
  144.9650  158.3890  133.4270 C   0  0  0  0  0  0  0  0  0  0  0  0
  144.4930  159.7740  133.5810 C   0  0  0  0  0  0  0  0  0  0  0  0
  145.2130  160.8590  132.9910 N   0  0  0  0  0  0  0  0  0  0  0  0
  143.4850  160.0110  134.2990 O   0  0  0  0  0  0  0  0  0  0  0  0
  144.1090  157.2960  133.4620 C   0  0  0  0  0  0  0  0  0  0  0  0
  144.9180  156.1980  133.2990 C   0  0  0  0  0  0  0  0  0  0  0  0
  144.5870  154.8460  133.2770 C   0  0  0  0  0  0  0  0  0  0  0  0
  145.6250  153.9160  133.1090 C   0  0  0  0  0  0  0  0  0  0  0  0
  146.9610  154.3550  132.9750 C   0  0  0  0  0  0  0  0  0  0  0  0
  148.0190  153.3910  132.8170 C   0  0  0  0  0  0  0  0  0  0  0  0
  148.9090  152.5890  132.6810 C   0  0  0  0  0  0  0  0  0  0  0  0
  149.9900  151.6010  132.5110 C   0  0  0  0  0  0  0  0  0  0  0  0
  149.7480  150.3430  133.2500 N   0  0  0  0  0  0  0  0  0  0  0  0
  148.4820  149.7000  132.8580 C   0  0  0  0  0  0  0  0  0  0  0  0
  149.8090  150.5370  134.7090 C   0  0  0  0  0  0  0  0  0  0  0  0
  147.2650  155.7300  133.0000 C   0  0  0  0  0  0  0  0  0  0  0  0
  146.2100  156.6430  133.1560 C   0  0  0  0  0  0  0  0  0  0  0  0
  150.7613  160.5660  129.5297 H   0  0  0  0  0  0  0  0  0  0  0  0
  149.2767  159.7306  128.9599 H   0  0  0  0  0  0  0  0  0  0  0  0
  149.3535  161.5252  128.9599 H   0  0  0  0  0  0  0  0  0  0  0  0
  149.5708  161.4783  131.4474 H   0  0  0  0  0  0  0  0  0  0  0  0
  147.3620  160.6190  131.8010 H   0  0  0  0  0  0  0  0  0  0  0  0
  150.1487  158.7480  131.0686 H   0  0  0  0  0  0  0  0  0  0  0  0
  149.9232  159.6193  132.6337 H   0  0  0  0  0  0  0  0  0  0  0  0
  146.1030  160.6880  132.4740 H   0  0  0  0  0  0  0  0  0  0  0  0
  144.8710  161.8390  133.1020 H   0  0  0  0  0  0  0  0  0  0  0  0
  143.0168  157.3072  133.5924 H   0  0  0  0  0  0  0  0  0  0  0  0
  143.5434  154.5163  133.3879 H   0  0  0  0  0  0  0  0  0  0  0  0
  145.3970  152.8402  133.0815 H   0  0  0  0  0  0  0  0  0  0  0  0
  150.0840  151.3656  131.4406 H   0  0  0  0  0  0  0  0  0  0  0  0
  150.9095  152.0480  132.9168 H   0  0  0  0  0  0  0  0  0  0  0  0
  147.9208  149.4150  133.7601 H   0  0  0  0  0  0  0  0  0  0  0  0
  147.8832  150.4032  132.2606 H   0  0  0  0  0  0  0  0  0  0  0  0
  148.6966  148.8017  132.2606 H   0  0  0  0  0  0  0  0  0  0  0  0
  149.5161  149.6054  135.2153 H   0  0  0  0  0  0  0  0  0  0  0  0
  150.8350  150.8058  135.0006 H   0  0  0  0  0  0  0  0  0  0  0  0
  149.1215  151.3446  135.0006 H   0  0  0  0  0  0  0  0  0  0  0  0
  148.3031  156.0798  132.8998 H   0  0  0  0  0  0  0  0  0  0  0  0
  1  2  1  0
  2  3  1  0
  2  4  1  0
  4  5  1  0
  5  6  1  0
  6  7  2  0
  6  8  1  0
  8  9  1  0
  9 10  1  0
 10 11  1  0
 10 12  2  0
  9 13  2  0
 13 14  1  0
 14 15  2  0
 15 16  1  0
 16 17  2  0
 17 18  1  0
 18 19  3  0
 19 20  1  0
 20 21  1  0
 21 22  1  0
 21 23  1  0
 17 24  1  0
 24 25  2  0
 25  8  1  0
 25 14  1  0
  1 26  1  0
  1 27  1  0
  1 28  1  0
  2 29  1  1
  3 30  1  0
  4 31  1  0
  4 32  1  0
 11 33  1  0
 11 34  1  0
 13 35  1  0
 15 36  1  0
 16 37  1  0
 20 38  1  0
 20 39  1  0
 22 40  1  0
 22 41  1  0
 22 42  1  0
 23 43  1  0
 23 44  1  0
 23 45  1  0
 24 46  1  0
M  END
>  <UniqueID>  (62) 
62

>  <SMILES>  (62) 
C[C@@H](O)COC(=O)n1c(C(N)=O)cc2ccc(C#CCN(C)C)cc21

>  <Energy>  (62) 
80.44132740490724

>  <Genealogy>  (62) 
C[C@@H](O)COC(=O)n1c(C(N)=O)cc2ccc(C#CCN(C)C)cc21 (3D coordinates assigned)
C[C@@H](O)COC(=O)n1c(C(N)=O)cc2ccc(C#CCN(C)C)cc21 (optimized conformer: 80.44132740490724 kcal/mol)

>  <smiles>  (62) 
C[C@@H](O)COC(=O)n1c(C(N)=O)cc2ccc(C#CCN(C)C)cc21

>  <score_type>  (62) 
oracle

>  <origin>  (62) 
adg

>  <m_score__min__energy>  (62) 
-7.3899999999999997

>  <m_primary>  (62) 
energy

$$$$
62:0
     RDKit          3D

 40 41  0  0  0  0  0  0  0  0999 V2000
  148.4730  158.2070  133.5650 C   0  0  0  0  0  0  0  0  0  0  0  0
  147.1390  158.4590  133.1400 O   0  0  0  0  0  0  0  0  0  0  0  0
  146.5080  159.6940  133.3290 C   0  0  0  0  0  0  0  0  0  0  0  0
  147.1610  160.7670  133.2110 O   0  0  0  0  0  0  0  0  0  0  0  0
  145.1170  159.7360  133.6830 N   0  0  0  0  0  0  0  0  0  0  0  0
  144.3510  160.8370  133.9250 C   0  0  0  0  0  0  0  0  0  0  0  0
  144.8400  162.2270  134.0380 C   0  0  0  0  0  0  0  0  0  0  0  0
  145.9660  162.5430  134.8510 N   0  0  0  0  0  0  0  0  0  0  0  0
  144.2240  163.1540  133.4480 O   0  0  0  0  0  0  0  0  0  0  0  0
  143.0250  160.4720  134.1460 C   0  0  0  0  0  0  0  0  0  0  0  0
  143.0010  159.1000  134.0400 C   0  0  0  0  0  0  0  0  0  0  0  0
  141.9400  158.2090  134.1700 C   0  0  0  0  0  0  0  0  0  0  0  0
  142.2030  156.8410  133.9950 C   0  0  0  0  0  0  0  0  0  0  0  0
  143.5100  156.3910  133.6810 C   0  0  0  0  0  0  0  0  0  0  0  0
  143.7850  154.9190  133.5460 C   0  0  0  0  0  0  0  0  0  0  0  0
  144.9590  154.6850  132.6280 C   0  0  0  0  0  0  0  0  0  0  0  0
  144.8090  154.8620  131.4280 O   0  0  0  0  0  0  0  0  0  0  0  0
  146.3130  154.2330  133.1390 C   0  0  1  0  0  0  0  0  0  0  0  0
  146.6850  153.0080  132.5580 O   0  0  0  0  0  0  0  0  0  0  0  0
  147.4030  155.2980  132.8890 C   0  0  0  0  0  0  0  0  0  0  0  0
  147.0650  156.1990  131.7860 N   0  0  0  0  0  0  0  0  0  0  0  0
  144.5620  157.3260  133.5540 C   0  0  0  0  0  0  0  0  0  0  0  0
  144.2760  158.6790  133.7580 C   0  0  0  0  0  0  0  0  0  0  0  0
  148.5124  158.1996  134.6643 H   0  0  0  0  0  0  0  0  0  0  0  0
  148.8024  157.2308  133.1797 H   0  0  0  0  0  0  0  0  0  0  0  0
  149.1358  158.9958  133.1797 H   0  0  0  0  0  0  0  0  0  0  0  0
  146.9340  162.5120  134.4620 H   0  0  0  0  0  0  0  0  0  0  0  0
  142.1768  161.1390  134.3599 H   0  0  0  0  0  0  0  0  0  0  0  0
  140.9258  158.5657  134.4029 H   0  0  0  0  0  0  0  0  0  0  0  0
  141.3869  156.1113  134.1026 H   0  0  0  0  0  0  0  0  0  0  0  0
  144.0113  154.5002  134.5377 H   0  0  0  0  0  0  0  0  0  0  0  0
  142.8970  154.4277  133.1217 H   0  0  0  0  0  0  0  0  0  0  0  0
  146.2208  154.0942  134.2263 H   0  0  0  0  0  0  0  0  0  0  0  0
  146.2640  152.9760  131.6600 H   0  0  0  0  0  0  0  0  0  0  0  0
  147.5303  155.8940  133.8048 H   0  0  0  0  0  0  0  0  0  0  0  0
  148.3292  154.7704  132.6173 H   0  0  0  0  0  0  0  0  0  0  0  0
  147.8660  156.8370  131.5720 H   0  0  0  0  0  0  0  0  0  0  0  0
  146.2420  156.7810  132.0640 H   0  0  0  0  0  0  0  0  0  0  0  0
  146.8060  155.6500  130.9350 H   0  0  0  0  0  0  0  0  0  0  0  0
  145.5807  156.9972  133.3009 H   0  0  0  0  0  0  0  0  0  0  0  0
  1  2  1  0
  2  3  1  0
  3  4  2  0
  3  5  1  0
  5  6  1  0
  6  7  1  0
  7  8  1  0
  7  9  2  0
  6 10  2  0
 10 11  1  0
 11 12  2  0
 12 13  1  0
 13 14  2  0
 14 15  1  0
 15 16  1  0
 16 17  2  0
 16 18  1  0
 18 19  1  0
 18 20  1  0
 20 21  1  0
 14 22  1  0
 22 23  2  0
 23  5  1  0
 23 11  1  0
  1 24  1  0
  1 25  1  0
  1 26  1  0
  8 27  1  0
 10 28  1  0
 12 29  1  0
 13 30  1  0
 15 31  1  0
 15 32  1  0
 18 33  1  1
 19 34  1  0
 20 35  1  0
 20 36  1  0
 21 37  1  0
 21 38  1  0
 21 39  1  0
 22 40  1  0
M  CHG  2   8  -1  21   1
M  END
>  <UniqueID>  (63) 
63

>  <SMILES>  (63) 
COC(=O)n1c(C([NH-])=O)cc2ccc(CC(=O)[C@@H](O)C[NH3+])cc21

>  <Energy>  (63) 
71.55353927224924

>  <Genealogy>  (63) 
COC(=O)n1c(C([NH-])=O)cc2ccc(CC(=O)C(O)C[NH3+])cc21 (protonated)
COC(=O)n1c(C([NH-])=O)cc2ccc(CC(=O)[C@@H](O)C[NH3+])cc21 (chirality)
COC(=O)n1c(C([NH-])=O)cc2ccc(CC(=O)[C@@H](O)C[NH3+])cc21 (3D coordinates assigned)
COC(=O)n1c(C([NH-])=O)cc2ccc(CC(=O)[C@@H](O)C[NH3+])cc21 (optimized conformer: 71.55353927224924 kcal/mol)

>  <smiles>  (63) 
COC(=O)n1c(C(N)=O)cc2ccc(CC(=O)C(O)CN)cc21

>  <score_type>  (63) 
oracle

>  <origin>  (63) 
adg

>  <m_score__min__energy>  (63) 
-6

>  <m_primary>  (63) 
energy

$$$$
63:0
     RDKit          3D

 51 55  0  0  0  0  0  0  0  0999 V2000
  148.7420  152.6060  133.6900 N   0  0  0  0  0  0  0  0  0  0  0  0
  149.0610  153.7730  132.9350 C   0  0  0  0  0  0  0  0  0  0  0  0
  150.0710  153.7640  132.1830 O   0  0  0  0  0  0  0  0  0  0  0  0
  148.2260  154.9850  133.0650 C   0  0  0  0  0  0  0  0  0  0  0  0
  148.6270  156.2510  132.6400 C   0  0  0  0  0  0  0  0  0  0  0  0
  147.5410  157.0700  132.8570 C   0  0  0  0  0  0  0  0  0  0  0  0
  147.3790  158.4310  132.6180 C   0  0  0  0  0  0  0  0  0  0  0  0
  146.1460  159.0170  132.9520 C   0  0  0  0  0  0  0  0  0  0  0  0
  145.1090  158.2360  133.5160 C   0  0  0  0  0  0  0  0  0  0  0  0
  143.8640  158.8440  133.8610 N   0  0  0  0  0  0  0  0  0  0  0  0
  142.7680  158.6090  134.8230 C   0  0  0  0  0  0  0  0  0  0  0  0
  141.9200  159.7660  134.3770 C   0  0  0  0  0  0  0  0  0  0  0  0
  140.6050  159.4150  133.7690 N   0  0  0  0  0  0  0  0  0  0  0  0
  140.5590  157.9710  133.4550 C   0  0  0  0  0  0  0  0  0  0  0  0
  139.1060  157.4890  133.2800 C   0  0  0  0  0  0  0  0  0  0  0  0
  138.1920  158.5220  132.5950 C   0  0  0  0  0  0  0  0  0  0  0  0
  139.0200  159.5630  131.8390 C   0  0  0  0  0  0  0  0  0  0  0  0
  139.2520  159.3050  130.3530 C   0  0  0  0  0  0  0  0  0  0  0  0
  138.2950  160.4060  130.8010 C   0  0  0  0  0  0  0  0  0  0  0  0
  140.1560  160.2510  132.6210 C   0  0  0  0  0  0  0  0  0  0  0  0
  143.0630  160.0060  133.4300 C   0  0  0  0  0  0  0  0  0  0  0  0
  145.3060  156.8590  133.7440 C   0  0  0  0  0  0  0  0  0  0  0  0
  146.5400  156.3020  133.3940 C   0  0  0  0  0  0  0  0  0  0  0  0
  146.9470  155.0240  133.5350 N   0  0  0  0  0  0  0  0  0  0  0  0
  146.1760  153.9510  134.0990 C   0  0  0  0  0  0  0  0  0  0  0  0
  145.7790  153.0140  133.3560 O   0  0  0  0  0  0  0  0  0  0  0  0
  145.7990  153.9590  135.5200 C   0  0  0  0  0  0  0  0  0  0  0  0
  144.7320  154.5130  135.8940 O   0  0  0  0  0  0  0  0  0  0  0  0
  146.6140  153.3390  136.4580 O   0  0  0  0  0  0  0  0  0  0  0  0
  147.7670  152.2350  133.7180 H   0  0  0  0  0  0  0  0  0  0  0  0
  149.6033  156.5353  132.2205 H   0  0  0  0  0  0  0  0  0  0  0  0
  148.1913  159.0302  132.1809 H   0  0  0  0  0  0  0  0  0  0  0  0
  145.9857  160.0906  132.7738 H   0  0  0  0  0  0  0  0  0  0  0  0
  142.2736  157.6375  134.6755 H   0  0  0  0  0  0  0  0  0  0  0  0
  143.0359  158.5636  135.8889 H   0  0  0  0  0  0  0  0  0  0  0  0
  141.5172  160.5361  135.0513 H   0  0  0  0  0  0  0  0  0  0  0  0
  141.1133  157.7879  132.5227 H   0  0  0  0  0  0  0  0  0  0  0  0
  141.0136  157.4167  134.2893 H   0  0  0  0  0  0  0  0  0  0  0  0
  139.1144  156.5736  132.6702 H   0  0  0  0  0  0  0  0  0  0  0  0
  138.6997  157.3168  134.2876 H   0  0  0  0  0  0  0  0  0  0  0  0
  137.5299  158.0036  131.8859 H   0  0  0  0  0  0  0  0  0  0  0  0
  137.5996  159.0353  133.3667 H   0  0  0  0  0  0  0  0  0  0  0  0
  140.2160  159.5671  129.8926 H   0  0  0  0  0  0  0  0  0  0  0  0
  139.1765  158.4279  129.6935 H   0  0  0  0  0  0  0  0  0  0  0  0
  138.5687  161.4623  130.6621 H   0  0  0  0  0  0  0  0  0  0  0  0
  137.2424  160.6515  130.5966 H   0  0  0  0  0  0  0  0  0  0  0  0
  141.0071  160.4178  131.9444 H   0  0  0  0  0  0  0  0  0  0  0  0
  139.7785  161.2067  133.0136 H   0  0  0  0  0  0  0  0  0  0  0  0
  142.7604  159.9459  132.3742 H   0  0  0  0  0  0  0  0  0  0  0  0
  143.5481  160.9926  133.4674 H   0  0  0  0  0  0  0  0  0  0  0  0
  144.5110  156.2397  134.1850 H   0  0  0  0  0  0  0  0  0  0  0  0
  1  2  1  0
  2  3  2  0
  2  4  1  0
  4  5  2  0
  5  6  1  0
  6  7  2  0
  7  8  1  0
  8  9  2  0
  9 10  1  0
 10 11  1  0
 11 12  1  0
 12 13  1  0
 13 14  1  0
 14 15  1  0
 15 16  1  0
 16 17  1  0
 17 18  1  0
 18 19  1  0
 17 20  1  0
 12 21  1  0
  9 22  1  0
 22 23  2  0
 23 24  1  0
 24 25  1  0
 25 26  2  0
 25 27  1  0
 27 28  2  0
 27 29  1  0
 24  4  1  0
 23  6  1  0
 21 10  1  0
 20 13  1  0
 19 17  1  0
  1 30  1  0
  5 31  1  0
  7 32  1  0
  8 33  1  0
 11 34  1  0
 11 35  1  0
 12 36  1  0
 14 37  1  0
 14 38  1  0
 15 39  1  0
 15 40  1  0
 16 41  1  0
 16 42  1  0
 18 43  1  0
 18 44  1  0
 19 45  1  0
 19 46  1  0
 20 47  1  0
 20 48  1  0
 21 49  1  0
 21 50  1  0
 22 51  1  0
M  CHG  2   1  -1  29  -1
M  END
>  <UniqueID>  (64) 
64

>  <SMILES>  (64) 
[NH-]C(=O)c1cc2ccc(N3CC(N4CCCC5(CC5)C4)C3)cc2n1C(=O)C(=O)[O-]

>  <Energy>  (64) 
419.145904513788

>  <Genealogy>  (64) 
[NH-]C(=O)c1cc2ccc(N3CC(N4CCCC5(CC5)C4)C3)cc2n1C(=O)C(=O)[O-] (protonated)
[NH-]C(=O)c1cc2ccc(N3CC(N4CCCC5(CC5)C4)C3)cc2n1C(=O)C(=O)[O-] (3D coordinates assigned)
[NH-]C(=O)c1cc2ccc(N3CC(N4CCCC5(CC5)C4)C3)cc2n1C(=O)C(=O)[O-] (nonaromatic ring conformer: 419.145904513788 kcal/mol)

>  <smiles>  (64) 
NC(=O)c1cc2ccc(N3CC(N4CCCC5(CC5)C4)C3)cc2n1C(=O)C(=O)O

>  <score_type>  (64) 
oracle

>  <origin>  (64) 
adg

>  <m_score__min__energy>  (64) 
-9.5399999999999991

>  <m_primary>  (64) 
energy

$$$$
64:0
     RDKit          3D

 31 32  0  0  0  0  0  0  0  0999 V2000
  149.9420  150.7510  133.0840 N   0  0  0  0  0  0  0  0  0  0  0  0
  149.9290  151.8610  132.7570 C   0  0  0  0  0  0  0  0  0  0  0  0
  149.9140  153.2080  132.3600 N   0  0  0  0  0  0  0  0  0  0  0  0
  148.8130  154.0910  132.6340 C   0  0  0  0  0  0  0  0  0  0  0  0
  147.5350  153.5390  132.8970 C   0  0  0  0  0  0  0  0  0  0  0  0
  146.4310  154.3680  133.1550 C   0  0  0  0  0  0  0  0  0  0  0  0
  146.6330  155.7430  133.1560 C   0  0  0  0  0  0  0  0  0  0  0  0
  145.7350  156.7690  133.3420 C   0  0  0  0  0  0  0  0  0  0  0  0
  146.4820  157.9370  133.2220 C   0  0  0  0  0  0  0  0  0  0  0  0
  145.9150  159.2880  133.4150 C   0  0  0  0  0  0  0  0  0  0  0  0
  146.6040  160.4520  132.9550 N   0  0  0  0  0  0  0  0  0  0  0  0
  144.8330  159.4200  134.0450 O   0  0  0  0  0  0  0  0  0  0  0  0
  147.7870  157.6500  132.9570 N   0  0  0  0  0  0  0  0  0  0  0  0
  148.8420  158.5770  132.6600 C   0  0  0  0  0  0  0  0  0  0  0  0
  149.2320  159.3910  133.5420 O   0  0  0  0  0  0  0  0  0  0  0  0
  149.4350  158.5760  131.3920 O   0  0  0  0  0  0  0  0  0  0  0  0
  148.9370  159.3330  130.2920 C   0  0  0  0  0  0  0  0  0  0  0  0
  149.1500  160.7950  130.5290 C   0  0  0  0  0  0  0  0  0  0  0  0
  148.5640  161.3720  131.4810 O   0  0  0  0  0  0  0  0  0  0  0  0
  149.9690  161.5270  129.6790 O   0  0  0  0  0  0  0  0  0  0  0  0
  147.8650  156.3000  132.9220 C   0  0  0  0  0  0  0  0  0  0  0  0
  148.9780  155.5000  132.6400 C   0  0  0  0  0  0  0  0  0  0  0  0
  150.7450  153.5660  131.8390 H   0  0  0  0  0  0  0  0  0  0  0  0
  147.4057  152.4466  132.8992 H   0  0  0  0  0  0  0  0  0  0  0  0
  145.4360  153.9416  133.3505 H   0  0  0  0  0  0  0  0  0  0  0  0
  144.6568  156.6840  133.5427 H   0  0  0  0  0  0  0  0  0  0  0  0
  146.1680  161.3950  133.0630 H   0  0  0  0  0  0  0  0  0  0  0  0
  147.5790  160.3930  132.5870 H   0  0  0  0  0  0  0  0  0  0  0  0
  149.4665  159.0330  129.3757 H   0  0  0  0  0  0  0  0  0  0  0  0
  147.8592  159.1412  130.1843 H   0  0  0  0  0  0  0  0  0  0  0  0
  149.9577  155.9530  132.4280 H   0  0  0  0  0  0  0  0  0  0  0  0
  1  2  3  0
  2  3  1  0
  3  4  1  0
  4  5  2  0
  5  6  1  0
  6  7  2  0
  7  8  1  0
  8  9  2  0
  9 10  1  0
 10 11  1  0
 10 12  2  0
  9 13  1  0
 13 14  1  0
 14 15  2  0
 14 16  1  0
 16 17  1  0
 17 18  1  0
 18 19  2  0
 18 20  1  0
 13 21  1  0
 21 22  2  0
 22  4  1  0
 21  7  1  0
  3 23  1  0
  5 24  1  0
  6 25  1  0
  8 26  1  0
 11 27  1  0
 11 28  1  0
 17 29  1  0
 17 30  1  0
 22 31  1  0
M  CHG  1  20  -1
M  END
>  <UniqueID>  (65) 
65

>  <SMILES>  (65) 
N#CNc1ccc2cc(C(N)=O)n(C(=O)OCC(=O)[O-])c2c1

>  <Energy>  (65) 
68.5886575946549

>  <Genealogy>  (65) 
N#CNc1ccc2cc(C(N)=O)n(C(=O)OCC(=O)[O-])c2c1 (protonated)
N#CNc1ccc2cc(C(N)=O)n(C(=O)OCC(=O)[O-])c2c1 (3D coordinates assigned)
N#CNc1ccc2cc(C(N)=O)n(C(=O)OCC(=O)[O-])c2c1 (optimized conformer: 68.5886575946549 kcal/mol)

>  <smiles>  (65) 
N#CNc1ccc2cc(C(N)=O)n(C(=O)OCC(=O)O)c2c1

>  <score_type>  (65) 
oracle

>  <origin>  (65) 
adg

>  <m_score__min__energy>  (65) 
-6.8499999999999996

>  <m_primary>  (65) 
energy

$$$$
65:0
     RDKit          3D

 51 52  0  0  0  0  0  0  0  0999 V2000
  141.0230  159.1260  137.0580 C   0  0  0  0  0  0  0  0  0  0  0  0
  140.4170  157.8120  136.7830 N   0  0  0  0  0  0  0  0  0  0  0  0
  141.4760  156.8270  136.5120 C   0  0  0  0  0  0  0  0  0  0  0  0
  139.4730  157.8940  135.6450 C   0  0  0  0  0  0  0  0  0  0  0  0
  140.0260  157.1170  134.4430 C   0  0  0  0  0  0  0  0  0  0  0  0
  140.5440  158.0420  133.4160 N   0  0  0  0  0  0  0  0  0  0  0  0
  139.6760  158.3730  132.2730 C   0  0  0  0  0  0  0  0  0  0  0  0
  141.8770  158.6260  133.5110 C   0  0  0  0  0  0  0  0  0  0  0  0
  142.0500  160.0380  133.6270 C   0  0  0  0  0  0  0  0  0  0  0  0
  143.3280  160.6120  133.7240 C   0  0  0  0  0  0  0  0  0  0  0  0
  144.4280  159.7650  133.7180 C   0  0  0  0  0  0  0  0  0  0  0  0
  145.7750  160.0530  133.7460 C   0  0  0  0  0  0  0  0  0  0  0  0
  146.4170  158.8190  133.6730 C   0  0  0  0  0  0  0  0  0  0  0  0
  147.8850  158.6520  133.6470 C   0  0  0  0  0  0  0  0  0  0  0  0
  148.4930  157.3710  133.8230 N   0  0  0  0  0  0  0  0  0  0  0  0
  148.6190  159.6660  133.4990 O   0  0  0  0  0  0  0  0  0  0  0  0
  145.5040  157.8130  133.6090 N   0  0  0  0  0  0  0  0  0  0  0  0
  145.7550  156.4240  133.3490 C   0  0  0  0  0  0  0  0  0  0  0  0
  146.6120  156.1070  132.4800 O   0  0  0  0  0  0  0  0  0  0  0  0
  145.0470  155.3980  134.0750 N   0  0  0  0  0  0  0  0  0  0  0  0
  143.9750  154.6430  133.4150 C   0  0  0  0  0  0  0  0  0  0  0  0
  145.3040  155.1960  135.5060 C   0  0  0  0  0  0  0  0  0  0  0  0
  146.6500  154.5740  135.7080 C   0  0  0  0  0  0  0  0  0  0  0  0
  147.6780  155.1250  135.2330 O   0  0  0  0  0  0  0  0  0  0  0  0
  146.7670  153.3680  136.3930 O   0  0  0  0  0  0  0  0  0  0  0  0
  144.2930  158.4090  133.6260 C   0  0  0  0  0  0  0  0  0  0  0  0
  143.0380  157.8070  133.4980 C   0  0  0  0  0  0  0  0  0  0  0  0
  141.0928  159.2773  138.1453 H   0  0  0  0  0  0  0  0  0  0  0  0
  142.0300  159.1649  136.6170 H   0  0  0  0  0  0  0  0  0  0  0  0
  140.3988  159.9172  136.6170 H   0  0  0  0  0  0  0  0  0  0  0  0
  141.8797  156.4515  137.4638 H   0  0  0  0  0  0  0  0  0  0  0  0
  141.0583  155.9889  135.9348 H   0  0  0  0  0  0  0  0  0  0  0  0
  142.2817  157.3042  135.9348 H   0  0  0  0  0  0  0  0  0  0  0  0
  138.5059  157.4629  135.9430 H   0  0  0  0  0  0  0  0  0  0  0  0
  139.3418  158.9488  135.3619 H   0  0  0  0  0  0  0  0  0  0  0  0
  140.8412  156.4606  134.7816 H   0  0  0  0  0  0  0  0  0  0  0  0
  139.2128  156.5208  134.0034 H   0  0  0  0  0  0  0  0  0  0  0  0
  138.7079  158.7421  132.6426 H   0  0  0  0  0  0  0  0  0  0  0  0
  140.1559  159.1512  131.6614 H   0  0  0  0  0  0  0  0  0  0  0  0
  139.5159  157.4728  131.6614 H   0  0  0  0  0  0  0  0  0  0  0  0
  141.1641  160.6900  133.6407 H   0  0  0  0  0  0  0  0  0  0  0  0
  143.4539  161.7019  133.8025 H   0  0  0  0  0  0  0  0  0  0  0  0
  146.2437  161.0460  133.8120 H   0  0  0  0  0  0  0  0  0  0  0  0
  147.9420  156.5450  134.1410 H   0  0  0  0  0  0  0  0  0  0  0  0
  149.5260  157.2620  133.7140 H   0  0  0  0  0  0  0  0  0  0  0  0
  143.3260  154.1859  134.1765 H   0  0  0  0  0  0  0  0  0  0  0  0
  143.3807  155.3230  132.7870 H   0  0  0  0  0  0  0  0  0  0  0  0
  144.4150  153.8544  132.7870 H   0  0  0  0  0  0  0  0  0  0  0  0
  145.2718  156.1673  136.0213 H   0  0  0  0  0  0  0  0  0  0  0  0
  144.5344  154.5262  135.9172 H   0  0  0  0  0  0  0  0  0  0  0  0
  142.9505  156.7159  133.3889 H   0  0  0  0  0  0  0  0  0  0  0  0
  1  2  1  0
  2  3  1  0
  2  4  1  0
  4  5  1  0
  5  6  1  0
  6  7  1  0
  6  8  1  0
  8  9  2  0
  9 10  1  0
 10 11  2  0
 11 12  1  0
 12 13  2  0
 13 14  1  0
 14 15  1  0
 14 16  2  0
 13 17  1  0
 17 18  1  0
 18 19  2  0
 18 20  1  0
 20 21  1  0
 20 22  1  0
 22 23  1  0
 23 24  2  0
 23 25  1  0
 17 26  1  0
 26 27  2  0
 27  8  1  0
 26 11  1  0
  1 28  1  0
  1 29  1  0
  1 30  1  0
  3 31  1  0
  3 32  1  0
  3 33  1  0
  4 34  1  0
  4 35  1  0
  5 36  1  0
  5 37  1  0
  7 38  1  0
  7 39  1  0
  7 40  1  0
  9 41  1  0
 10 42  1  0
 12 43  1  0
 15 44  1  0
 15 45  1  0
 21 46  1  0
 21 47  1  0
 21 48  1  0
 22 49  1  0
 22 50  1  0
 27 51  1  0
M  CHG  1  25  -1
M  END
>  <UniqueID>  (66) 
66

>  <SMILES>  (66) 
CN(C)CCN(C)c1ccc2cc(C(N)=O)n(C(=O)N(C)CC(=O)[O-])c2c1

>  <Energy>  (66) 
88.85808678920787

>  <Genealogy>  (66) 
CN(C)CCN(C)c1ccc2cc(C(N)=O)n(C(=O)N(C)CC(=O)[O-])c2c1 (protonated)
CN(C)CCN(C)c1ccc2cc(C(N)=O)n(C(=O)N(C)CC(=O)[O-])c2c1 (3D coordinates assigned)
CN(C)CCN(C)c1ccc2cc(C(N)=O)n(C(=O)N(C)CC(=O)[O-])c2c1 (optimized conformer: 88.85808678920787 kcal/mol)

>  <smiles>  (66) 
CN(C)CCN(C)c1ccc2cc(C(N)=O)n(C(=O)N(C)CC(=O)O)c2c1

>  <score_type>  (66) 
oracle

>  <origin>  (66) 
adg

>  <m_score__min__energy>  (66) 
-7.2300000000000004

>  <m_primary>  (66) 
energy

$$$$
66:0
     RDKit          3D

 39 40  0  0  0  0  0  0  0  0999 V2000
  141.7370  155.1980  133.6820 C   0  0  0  0  0  0  0  0  0  0  0  0
  142.0130  156.5310  133.3160 O   0  0  0  0  0  0  0  0  0  0  0  0
  140.8110  157.2650  133.1620 C   0  0  0  0  0  0  0  0  0  0  0  0
  141.1010  158.7610  133.2210 C   0  0  0  0  0  0  0  0  0  0  0  0
  142.1330  159.0000  134.1530 O   0  0  0  0  0  0  0  0  0  0  0  0
  142.9020  160.1080  133.7370 C   0  0  0  0  0  0  0  0  0  0  0  0
  144.0550  159.6430  133.0440 O   0  0  0  0  0  0  0  0  0  0  0  0
  145.3590  159.9350  133.4570 C   0  0  0  0  0  0  0  0  0  0  0  0
  145.6020  160.9990  134.0900 O   0  0  0  0  0  0  0  0  0  0  0  0
  146.4250  159.0170  133.1660 N   0  0  0  0  0  0  0  0  0  0  0  0
  146.5820  157.7500  133.6420 C   0  0  0  0  0  0  0  0  0  0  0  0
  145.5920  156.9990  134.4390 C   0  0  0  0  0  0  0  0  0  0  0  0
  144.1890  157.2110  134.2700 N   0  0  0  0  0  0  0  0  0  0  0  0
  145.9880  156.1140  135.2430 O   0  0  0  0  0  0  0  0  0  0  0  0
  147.8000  157.2170  133.2310 C   0  0  0  0  0  0  0  0  0  0  0  0
  148.3860  158.2000  132.4670 C   0  0  0  0  0  0  0  0  0  0  0  0
  149.6170  158.2120  131.8160 C   0  0  0  0  0  0  0  0  0  0  0  0
  149.9860  159.3800  131.1270 C   0  0  0  0  0  0  0  0  0  0  0  0
  149.1290  160.5070  131.1100 C   0  0  0  0  0  0  0  0  0  0  0  0
  149.5220  161.6930  130.4160 N   0  0  0  0  0  0  0  0  0  0  0  0
  147.8890  160.4610  131.7820 C   0  0  0  0  0  0  0  0  0  0  0  0
  147.5370  159.2770  132.4430 C   0  0  0  0  0  0  0  0  0  0  0  0
  141.7198  155.1150  134.7787 H   0  0  0  0  0  0  0  0  0  0  0  0
  140.7584  154.9015  133.2765 H   0  0  0  0  0  0  0  0  0  0  0  0
  142.5174  154.5373  133.2765 H   0  0  0  0  0  0  0  0  0  0  0  0
  140.3568  157.0202  132.1905 H   0  0  0  0  0  0  0  0  0  0  0  0
  140.1195  156.9993  133.9752 H   0  0  0  0  0  0  0  0  0  0  0  0
  141.4143  159.1139  132.2274 H   0  0  0  0  0  0  0  0  0  0  0  0
  140.1934  159.3002  133.5302 H   0  0  0  0  0  0  0  0  0  0  0  0
  142.3016  160.7424  133.0683 H   0  0  0  0  0  0  0  0  0  0  0  0
  143.2098  160.6950  134.6149 H   0  0  0  0  0  0  0  0  0  0  0  0
  143.5050  156.7020  134.8720 H   0  0  0  0  0  0  0  0  0  0  0  0
  143.8230  157.8040  133.4930 H   0  0  0  0  0  0  0  0  0  0  0  0
  148.2072  156.2226  133.4665 H   0  0  0  0  0  0  0  0  0  0  0  0
  150.2800  157.3346  131.8403 H   0  0  0  0  0  0  0  0  0  0  0  0
  150.9488  159.4190  130.5964 H   0  0  0  0  0  0  0  0  0  0  0  0
  148.8780  162.1520  129.7330 H   0  0  0  0  0  0  0  0  0  0  0  0
  150.4600  162.1220  130.5800 H   0  0  0  0  0  0  0  0  0  0  0  0
  147.2167  161.3316  131.7867 H   0  0  0  0  0  0  0  0  0  0  0  0
  1  2  1  0
  2  3  1  0
  3  4  1  0
  4  5  1  0
  5  6  1  0
  6  7  1  0
  7  8  1  0
  8  9  2  0
  8 10  1  0
 10 11  1  0
 11 12  1  0
 12 13  1  0
 12 14  2  0
 11 15  2  0
 15 16  1  0
 16 17  2  0
 17 18  1  0
 18 19  2  0
 19 20  1  0
 19 21  1  0
 21 22  2  0
 22 10  1  0
 22 16  1  0
  1 23  1  0
  1 24  1  0
  1 25  1  0
  3 26  1  0
  3 27  1  0
  4 28  1  0
  4 29  1  0
  6 30  1  0
  6 31  1  0
 13 32  1  0
 13 33  1  0
 15 34  1  0
 17 35  1  0
 18 36  1  0
 20 37  1  0
 20 38  1  0
 21 39  1  0
M  END
>  <UniqueID>  (67) 
67

>  <SMILES>  (67) 
COCCOCOC(=O)n1c(C(N)=O)cc2ccc(N)cc21

>  <Energy>  (67) 
76.74979966652099

>  <Genealogy>  (67) 
COCCOCOC(=O)n1c(C(N)=O)cc2ccc(N)cc21 (3D coordinates assigned)
COCCOCOC(=O)n1c(C(N)=O)cc2ccc(N)cc21 (optimized conformer: 76.74979966652099 kcal/mol)

>  <smiles>  (67) 
COCCOCOC(=O)n1c(C(N)=O)cc2ccc(N)cc21

>  <score_type>  (67) 
oracle

>  <origin>  (67) 
adg

>  <m_score__min__energy>  (67) 
-5.2999999999999998

>  <m_primary>  (67) 
energy

$$$$
67:0
     RDKit          3D

 37 38  0  0  0  0  0  0  0  0999 V2000
  138.7920  159.3530  130.5540 C   0  0  0  0  0  0  0  0  0  0  0  0
  139.5030  159.0120  131.8300 C   0  0  0  0  0  0  0  0  0  0  0  0
  139.9770  160.0440  132.6770 C   0  0  0  0  0  0  0  0  0  0  0  0
  140.6220  159.7370  133.8870 C   0  0  0  0  0  0  0  0  0  0  0  0
  140.7570  158.3950  134.2320 C   0  0  0  0  0  0  0  0  0  0  0  0
  141.3550  157.8180  135.3290 C   0  0  0  0  0  0  0  0  0  0  0  0
  141.2010  156.4440  135.1530 C   0  0  0  0  0  0  0  0  0  0  0  0
  141.6380  155.4400  136.1470 C   0  0  0  0  0  0  0  0  0  0  0  0
  142.5440  154.3990  135.7930 N   0  0  0  0  0  0  0  0  0  0  0  0
  141.1740  155.4810  137.3180 O   0  0  0  0  0  0  0  0  0  0  0  0
  140.5360  156.1830  133.9920 N   0  0  0  0  0  0  0  0  0  0  0  0
  140.2450  154.9020  133.4120 C   0  0  0  0  0  0  0  0  0  0  0  0
  139.0990  154.6800  132.9370 O   0  0  0  0  0  0  0  0  0  0  0  0
  141.2580  153.8830  133.3820 N   0  0  0  0  0  0  0  0  0  0  0  0
  141.0280  152.5290  132.9730 C   0  0  0  0  0  0  0  0  0  0  0  0
  139.8710  152.1490  132.6410 O   0  0  0  0  0  0  0  0  0  0  0  0
  142.1080  151.6360  132.9580 O   0  0  0  0  0  0  0  0  0  0  0  0
  143.4590  152.0060  132.9570 C   0  0  0  0  0  0  0  0  0  0  0  0
  144.3380  151.2590  132.4430 O   0  0  0  0  0  0  0  0  0  0  0  0
  143.8220  153.2250  133.5400 O   0  0  0  0  0  0  0  0  0  0  0  0
  144.9460  153.9930  133.1160 C   0  0  0  0  0  0  0  0  0  0  0  0
  144.6910  155.4520  133.3220 C   0  0  0  0  0  0  0  0  0  0  0  0
  145.6570  156.2530  133.4240 O   0  0  0  0  0  0  0  0  0  0  0  0
  143.3900  155.9320  133.3780 O   0  0  0  0  0  0  0  0  0  0  0  0
  140.2730  157.3870  133.4380 C   0  0  0  0  0  0  0  0  0  0  0  0
  139.6460  157.6620  132.2180 C   0  0  0  0  0  0  0  0  0  0  0  0
  137.8227  159.8179  130.7873 H   0  0  0  0  0  0  0  0  0  0  0  0
  139.4043  160.0554  129.9695 H   0  0  0  0  0  0  0  0  0  0  0  0
  138.6275  158.4358  129.9695 H   0  0  0  0  0  0  0  0  0  0  0  0
  139.8388  161.0954  132.3847 H   0  0  0  0  0  0  0  0  0  0  0  0
  141.0083  160.5323  134.5414 H   0  0  0  0  0  0  0  0  0  0  0  0
  141.8494  158.3319  136.1666 H   0  0  0  0  0  0  0  0  0  0  0  0
  143.1170  154.4580  134.9230 H   0  0  0  0  0  0  0  0  0  0  0  0
  142.2260  154.1430  133.6730 H   0  0  0  0  0  0  0  0  0  0  0  0
  145.8295  153.6940  133.6992 H   0  0  0  0  0  0  0  0  0  0  0  0
  145.1187  153.8097  132.0452 H   0  0  0  0  0  0  0  0  0  0  0  0
  139.2743  156.8482  131.5781 H   0  0  0  0  0  0  0  0  0  0  0  0
  1  2  1  0
  2  3  2  0
  3  4  1  0
  4  5  2  0
  5  6  1  0
  6  7  2  0
  7  8  1  0
  8  9  1  0
  8 10  2  0
  7 11  1  0
 11 12  1  0
 12 13  2  0
 12 14  1  0
 14 15  1  0
 15 16  2  0
 15 17  1  0
 17 18  1  0
 18 19  2  0
 18 20  1  0
 20 21  1  0
 21 22  1  0
 22 23  2  0
 22 24  1  0
 11 25  1  0
 25 26  2  0
 26  2  1  0
 25  5  1  0
  1 27  1  0
  1 28  1  0
  1 29  1  0
  3 30  1  0
  4 31  1  0
  6 32  1  0
  9 33  1  0
 14 34  1  0
 21 35  1  0
 21 36  1  0
 26 37  1  0
M  CHG  2   9  -1  24  -1
M  END
>  <UniqueID>  (68) 
68

>  <SMILES>  (68) 
Cc1ccc2cc(C([NH-])=O)n(C(=O)NC(=O)OC(=O)OCC(=O)[O-])c2c1

>  <Energy>  (68) 
74.77046421770449

>  <Genealogy>  (68) 
Cc1ccc2cc(C([NH-])=O)n(C(=O)NC(=O)OC(=O)OCC(=O)[O-])c2c1 (protonated)
Cc1ccc2cc(C([NH-])=O)n(C(=O)NC(=O)OC(=O)OCC(=O)[O-])c2c1 (3D coordinates assigned)
Cc1ccc2cc(C([NH-])=O)n(C(=O)NC(=O)OC(=O)OCC(=O)[O-])c2c1 (optimized conformer: 74.77046421770449 kcal/mol)

>  <smiles>  (68) 
Cc1ccc2cc(C(N)=O)n(C(=O)NC(=O)OC(=O)OCC(=O)O)c2c1

>  <score_type>  (68) 
oracle

>  <origin>  (68) 
adg

>  <m_score__min__energy>  (68) 
-6.8099999999999996

>  <m_primary>  (68) 
energy

$$$$
68:0
     RDKit          3D

 53 54  0  0  0  0  0  0  0  0999 V2000
  139.2810  157.9950  132.8570 C   0  0  0  0  0  0  0  0  0  0  0  0
  139.1110  157.8580  134.3640 C   0  0  0  0  0  0  0  0  0  0  0  0
  139.8850  158.8360  135.0530 O   0  0  0  0  0  0  0  0  0  0  0  0
  140.3380  158.6770  136.3670 C   0  0  0  0  0  0  0  0  0  0  0  0
  140.7390  159.6680  137.0380 O   0  0  0  0  0  0  0  0  0  0  0  0
  140.3250  157.3180  136.9900 C   0  0  0  0  0  0  0  0  0  0  0  0
  141.6740  156.7610  137.0370 N   0  0  0  0  0  0  0  0  0  0  0  0
  142.2930  155.9750  136.0100 C   0  0  0  0  0  0  0  0  0  0  0  0
  142.8930  154.9190  136.3420 O   0  0  0  0  0  0  0  0  0  0  0  0
  142.1740  156.3390  134.5510 C   0  0  0  0  0  0  0  0  0  0  0  0
  143.1550  157.4150  134.1640 C   0  0  0  0  0  0  0  0  0  0  0  0
  142.7230  158.7570  134.0190 C   0  0  0  0  0  0  0  0  0  0  0  0
  143.6300  159.7630  133.6440 C   0  0  0  0  0  0  0  0  0  0  0  0
  144.9510  159.3950  133.4040 C   0  0  0  0  0  0  0  0  0  0  0  0
  146.0370  160.1690  133.0640 C   0  0  0  0  0  0  0  0  0  0  0  0
  147.1050  159.2810  132.9670 C   0  0  0  0  0  0  0  0  0  0  0  0
  148.4670  159.6870  132.5650 C   0  0  0  0  0  0  0  0  0  0  0  0
  149.6150  158.9420  132.9770 N   0  0  0  0  0  0  0  0  0  0  0  0
  148.6170  160.6760  131.7990 O   0  0  0  0  0  0  0  0  0  0  0  0
  146.7020  158.0110  133.2490 N   0  0  0  0  0  0  0  0  0  0  0  0
  147.5170  156.8350  133.3660 C   0  0  0  0  0  0  0  0  0  0  0  0
  148.3060  156.5270  132.4300 O   0  0  0  0  0  0  0  0  0  0  0  0
  147.4280  156.0470  134.5220 O   0  0  0  0  0  0  0  0  0  0  0  0
  147.2340  154.6270  134.5720 C   0  0  0  0  0  0  0  0  0  0  0  0
  145.8840  154.2440  133.9370 C   0  0  0  0  0  0  0  0  0  0  0  0
  148.3660  153.9860  133.7550 C   0  0  0  0  0  0  0  0  0  0  0  0
  147.3170  154.1170  136.0240 C   0  0  0  0  0  0  0  0  0  0  0  0
  145.3780  158.0960  133.5130 C   0  0  0  0  0  0  0  0  0  0  0  0
  144.5020  157.0770  133.9050 C   0  0  0  0  0  0  0  0  0  0  0  0
  140.1211  158.6720  132.6428 H   0  0  0  0  0  0  0  0  0  0  0  0
  139.4859  157.0066  132.4198 H   0  0  0  0  0  0  0  0  0  0  0  0
  138.3588  158.4053  132.4198 H   0  0  0  0  0  0  0  0  0  0  0  0
  138.0498  157.9921  134.6206 H   0  0  0  0  0  0  0  0  0  0  0  0
  139.4558  156.8585  134.6676 H   0  0  0  0  0  0  0  0  0  0  0  0
  139.9292  157.3933  138.0136 H   0  0  0  0  0  0  0  0  0  0  0  0
  139.6891  156.6561  136.3838 H   0  0  0  0  0  0  0  0  0  0  0  0
  142.3689  155.4433  133.9429 H   0  0  0  0  0  0  0  0  0  0  0  0
  141.1578  156.7214  134.3745 H   0  0  0  0  0  0  0  0  0  0  0  0
  141.6690  159.0134  134.2015 H   0  0  0  0  0  0  0  0  0  0  0  0
  143.3059  160.8093  133.5432 H   0  0  0  0  0  0  0  0  0  0  0  0
  146.0570  161.2570  132.9032 H   0  0  0  0  0  0  0  0  0  0  0  0
  149.5170  158.0170  133.4520 H   0  0  0  0  0  0  0  0  0  0  0  0
  150.5710  159.2780  132.7320 H   0  0  0  0  0  0  0  0  0  0  0  0
  145.1513  154.0361  134.7307 H   0  0  0  0  0  0  0  0  0  0  0  0
  145.5232  155.0752  133.3134 H   0  0  0  0  0  0  0  0  0  0  0  0
  146.0134  153.3471  133.3134 H   0  0  0  0  0  0  0  0  0  0  0  0
  149.1162  153.5612  134.4383 H   0  0  0  0  0  0  0  0  0  0  0  0
  147.9537  153.1873  133.1209 H   0  0  0  0  0  0  0  0  0  0  0  0
  148.8388  154.7504  133.1209 H   0  0  0  0  0  0  0  0  0  0  0  0
  147.1798  154.9601  136.7171 H   0  0  0  0  0  0  0  0  0  0  0  0
  146.5288  153.3692  136.1956 H   0  0  0  0  0  0  0  0  0  0  0  0
  148.3017  153.6578  136.1956 H   0  0  0  0  0  0  0  0  0  0  0  0
  144.8534  156.0398  134.0087 H   0  0  0  0  0  0  0  0  0  0  0  0
  1  2  1  0
  2  3  1  0
  3  4  1  0
  4  5  2  0
  4  6  1  0
  6  7  1  0
  7  8  1  0
  8  9  2  0
  8 10  1  0
 10 11  1  0
 11 12  2  0
 12 13  1  0
 13 14  2  0
 14 15  1  0
 15 16  2  0
 16 17  1  0
 17 18  1  0
 17 19  2  0
 16 20  1  0
 20 21  1  0
 21 22  2  0
 21 23  1  0
 23 24  1  0
 24 25  1  0
 24 26  1  0
 24 27  1  0
 20 28  1  0
 28 29  2  0
 29 11  1  0
 28 14  1  0
  1 30  1  0
  1 31  1  0
  1 32  1  0
  2 33  1  0
  2 34  1  0
  6 35  1  0
  6 36  1  0
 10 37  1  0
 10 38  1  0
 12 39  1  0
 13 40  1  0
 15 41  1  0
 18 42  1  0
 18 43  1  0
 25 44  1  0
 25 45  1  0
 25 46  1  0
 26 47  1  0
 26 48  1  0
 26 49  1  0
 27 50  1  0
 27 51  1  0
 27 52  1  0
 29 53  1  0
M  CHG  1   7  -1
M  END
>  <UniqueID>  (69) 
69

>  <SMILES>  (69) 
CCOC(=O)C[N-]C(=O)Cc1ccc2cc(C(N)=O)n(C(=O)OC(C)(C)C)c2c1

>  <Energy>  (69) 
79.3089086300597

>  <Genealogy>  (69) 
CCOC(=O)C[N-]C(=O)Cc1ccc2cc(C(N)=O)n(C(=O)OC(C)(C)C)c2c1 (protonated)
CCOC(=O)C[N-]C(=O)Cc1ccc2cc(C(N)=O)n(C(=O)OC(C)(C)C)c2c1 (3D coordinates assigned)
CCOC(=O)C[N-]C(=O)Cc1ccc2cc(C(N)=O)n(C(=O)OC(C)(C)C)c2c1 (optimized conformer: 79.3089086300597 kcal/mol)

>  <smiles>  (69) 
CCOC(=O)CNC(=O)Cc1ccc2cc(C(N)=O)n(C(=O)OC(C)(C)C)c2c1

>  <score_type>  (69) 
oracle

>  <origin>  (69) 
adg

>  <m_score__min__energy>  (69) 
-7.79

>  <m_primary>  (69) 
energy

$$$$
69:0
     RDKit          3D

 46 47  0  0  0  0  0  0  0  0999 V2000
  137.8910  159.0160  131.7010 C   0  0  0  0  0  0  0  0  0  0  0  0
  139.2350  158.7710  132.2340 N   0  0  0  0  0  0  0  0  0  0  0  0
  140.4000  159.2360  131.4660 C   0  0  0  0  0  0  0  0  0  0  0  0
  139.3760  157.9730  133.4300 C   0  0  0  0  0  0  0  0  0  0  0  0
  138.3530  157.7030  134.1180 O   0  0  0  0  0  0  0  0  0  0  0  0
  140.7000  157.4220  133.8840 C   0  0  0  0  0  0  0  0  0  0  0  0
  141.4420  158.4120  134.6820 N   0  0  0  0  0  0  0  0  0  0  0  0
  140.9010  158.8330  135.9810 C   0  0  0  0  0  0  0  0  0  0  0  0
  142.7300  158.9140  134.2490 C   0  0  0  0  0  0  0  0  0  0  0  0
  142.9140  160.2960  133.9670 C   0  0  0  0  0  0  0  0  0  0  0  0
  144.1680  160.7920  133.5740 C   0  0  0  0  0  0  0  0  0  0  0  0
  145.2190  159.8870  133.4490 C   0  0  0  0  0  0  0  0  0  0  0  0
  146.5310  160.1040  133.0980 C   0  0  0  0  0  0  0  0  0  0  0  0
  147.1330  158.8450  133.1250 C   0  0  0  0  0  0  0  0  0  0  0  0
  148.5400  158.5970  132.7270 C   0  0  0  0  0  0  0  0  0  0  0  0
  148.8730  157.4950  131.8810 N   0  0  0  0  0  0  0  0  0  0  0  0
  149.4610  159.3400  133.1590 O   0  0  0  0  0  0  0  0  0  0  0  0
  146.2280  157.8860  133.4860 N   0  0  0  0  0  0  0  0  0  0  0  0
  146.4630  156.4760  133.6640 C   0  0  0  0  0  0  0  0  0  0  0  0
  146.2240  155.9360  134.7780 O   0  0  0  0  0  0  0  0  0  0  0  0
  146.9400  155.7110  132.5890 O   0  0  0  0  0  0  0  0  0  0  0  0
  147.9950  154.7890  132.6580 C   0  0  0  0  0  0  0  0  0  0  0  0
  149.1590  155.1000  132.2820 O   0  0  0  0  0  0  0  0  0  0  0  0
  147.7430  153.4240  133.2170 C   0  0  0  0  0  0  0  0  0  0  0  0
  148.5870  152.5020  132.6230 F   0  0  0  0  0  0  0  0  0  0  0  0
  147.9700  153.4250  134.5800 F   0  0  0  0  0  0  0  0  0  0  0  0
  146.4310  153.0610  132.9720 F   0  0  0  0  0  0  0  0  0  0  0  0
  145.0600  158.5440  133.6830 C   0  0  0  0  0  0  0  0  0  0  0  0
  143.8280  158.0280  134.1060 C   0  0  0  0  0  0  0  0  0  0  0  0
  137.1841  159.1449  132.5339 H   0  0  0  0  0  0  0  0  0  0  0  0
  137.9014  159.9271  131.0847 H   0  0  0  0  0  0  0  0  0  0  0  0
  137.5793  158.1599  131.0847 H   0  0  0  0  0  0  0  0  0  0  0  0
  141.1934  159.5527  132.1590 H   0  0  0  0  0  0  0  0  0  0  0  0
  140.7719  158.4174  130.8323 H   0  0  0  0  0  0  0  0  0  0  0  0
  140.1060  160.0857  130.8323 H   0  0  0  0  0  0  0  0  0  0  0  0
  140.5246  156.5255  134.4969 H   0  0  0  0  0  0  0  0  0  0  0  0
  141.2974  157.1724  132.9947 H   0  0  0  0  0  0  0  0  0  0  0  0
  141.4898  158.3748  136.7893 H   0  0  0  0  0  0  0  0  0  0  0  0
  140.9556  159.9286  136.0633 H   0  0  0  0  0  0  0  0  0  0  0  0
  139.8524  158.5109  136.0633 H   0  0  0  0  0  0  0  0  0  0  0  0
  142.0622  160.9861  134.0580 H   0  0  0  0  0  0  0  0  0  0  0  0
  144.3154  161.8630  133.3711 H   0  0  0  0  0  0  0  0  0  0  0  0
  147.0049  161.0650  132.8491 H   0  0  0  0  0  0  0  0  0  0  0  0
  148.1310  156.8800  131.4800 H   0  0  0  0  0  0  0  0  0  0  0  0
  149.8630  157.3610  131.5640 H   0  0  0  0  0  0  0  0  0  0  0  0
  143.7146  156.9556  134.3231 H   0  0  0  0  0  0  0  0  0  0  0  0
  1  2  1  0
  2  3  1  0
  2  4  1  0
  4  5  2  0
  4  6  1  0
  6  7  1  0
  7  8  1  0
  7  9  1  0
  9 10  2  0
 10 11  1  0
 11 12  2  0
 12 13  1  0
 13 14  2  0
 14 15  1  0
 15 16  1  0
 15 17  2  0
 14 18  1  0
 18 19  1  0
 19 20  2  0
 19 21  1  0
 21 22  1  0
 22 23  2  0
 22 24  1  0
 24 25  1  0
 24 26  1  0
 24 27  1  0
 18 28  1  0
 28 29  2  0
 29  9  1  0
 28 12  1  0
  1 30  1  0
  1 31  1  0
  1 32  1  0
  3 33  1  0
  3 34  1  0
  3 35  1  0
  6 36  1  0
  6 37  1  0
  8 38  1  0
  8 39  1  0
  8 40  1  0
 10 41  1  0
 11 42  1  0
 13 43  1  0
 16 44  1  0
 16 45  1  0
 29 46  1  0
M  END
>  <UniqueID>  (70) 
70

>  <SMILES>  (70) 
CN(C)C(=O)CN(C)c1ccc2cc(C(N)=O)n(C(=O)OC(=O)C(F)(F)F)c2c1

>  <Energy>  (70) 
83.49574933955806

>  <Genealogy>  (70) 
CN(C)C(=O)CN(C)c1ccc2cc(C(N)=O)n(C(=O)OC(=O)C(F)(F)F)c2c1 (3D coordinates assigned)
CN(C)C(=O)CN(C)c1ccc2cc(C(N)=O)n(C(=O)OC(=O)C(F)(F)F)c2c1 (optimized conformer: 83.49574933955806 kcal/mol)

>  <smiles>  (70) 
CN(C)C(=O)CN(C)c1ccc2cc(C(N)=O)n(C(=O)OC(=O)C(F)(F)F)c2c1

>  <score_type>  (70) 
oracle

>  <origin>  (70) 
adg

>  <m_score__min__energy>  (70) 
-7.1699999999999999

>  <m_primary>  (70) 
energy

$$$$
70:0
     RDKit          3D

 37 38  0  0  0  0  0  0  0  0999 V2000
  139.1150  159.8800  131.8130 C   0  0  0  0  0  0  0  0  0  0  0  0
  139.8790  159.2990  132.7460 C   0  0  0  0  0  0  0  0  0  0  0  0
  139.3880  158.0530  133.4310 C   0  0  0  0  0  0  0  0  0  0  0  0
  141.2180  159.8540  133.0760 C   0  0  0  0  0  0  0  0  0  0  0  0
  141.3180  161.0550  133.4510 O   0  0  0  0  0  0  0  0  0  0  0  0
  142.3970  159.0370  132.9680 N   0  0  0  0  0  0  0  0  0  0  0  0
  143.6780  159.4010  133.5060 C   0  0  0  0  0  0  0  0  0  0  0  0
  143.8500  160.5240  134.0510 O   0  0  0  0  0  0  0  0  0  0  0  0
  144.7710  158.4720  133.4410 N   0  0  0  0  0  0  0  0  0  0  0  0
  144.7500  157.1370  133.7200 C   0  0  0  0  0  0  0  0  0  0  0  0
  143.6120  156.3850  134.2870 C   0  0  0  0  0  0  0  0  0  0  0  0
  142.3750  156.2850  133.5870 N   0  0  0  0  0  0  0  0  0  0  0  0
  143.7200  155.8530  135.4240 O   0  0  0  0  0  0  0  0  0  0  0  0
  145.9960  156.5670  133.4580 C   0  0  0  0  0  0  0  0  0  0  0  0
  146.7850  157.6020  133.0090 C   0  0  0  0  0  0  0  0  0  0  0  0
  148.1100  157.6020  132.5910 C   0  0  0  0  0  0  0  0  0  0  0  0
  148.6620  158.8150  132.1460 C   0  0  0  0  0  0  0  0  0  0  0  0
  147.8860  160.0000  132.1170 C   0  0  0  0  0  0  0  0  0  0  0  0
  148.4860  161.2210  131.6470 N   0  0  0  0  0  0  0  0  0  0  0  0
  149.5980  161.2610  130.7050 C   0  0  0  0  0  0  0  0  0  0  0  0
  146.5360  159.9580  132.5470 C   0  0  0  0  0  0  0  0  0  0  0  0
  146.0210  158.7400  133.0050 C   0  0  0  0  0  0  0  0  0  0  0  0
  139.4641  160.7915  131.3057 H   0  0  0  0  0  0  0  0  0  0  0  0
  138.1381  159.4460  131.5536 H   0  0  0  0  0  0  0  0  0  0  0  0
  139.4415  158.1887  134.5213 H   0  0  0  0  0  0  0  0  0  0  0  0
  138.3461  157.8589  133.1363 H   0  0  0  0  0  0  0  0  0  0  0  0
  140.0174  157.2003  133.1363 H   0  0  0  0  0  0  0  0  0  0  0  0
  142.3350  158.1270  132.4590 H   0  0  0  0  0  0  0  0  0  0  0  0
  142.3460  155.9840  132.5880 H   0  0  0  0  0  0  0  0  0  0  0  0
  146.2866  155.5135  133.5836 H   0  0  0  0  0  0  0  0  0  0  0  0
  148.7091  156.6796  132.6080 H   0  0  0  0  0  0  0  0  0  0  0  0
  149.7108  158.8450  131.8157 H   0  0  0  0  0  0  0  0  0  0  0  0
  148.1010  162.1330  131.9820 H   0  0  0  0  0  0  0  0  0  0  0  0
  150.5473  161.2952  131.2596 H   0  0  0  0  0  0  0  0  0  0  0  0
  149.5751  160.3615  130.0723 H   0  0  0  0  0  0  0  0  0  0  0  0
  149.5106  162.1566  130.0723 H   0  0  0  0  0  0  0  0  0  0  0  0
  145.9083  160.8609  132.5213 H   0  0  0  0  0  0  0  0  0  0  0  0
  1  2  2  0
  2  3  1  0
  2  4  1  0
  4  5  2  0
  4  6  1  0
  6  7  1  0
  7  8  2  0
  7  9  1  0
  9 10  1  0
 10 11  1  0
 11 12  1  0
 11 13  2  0
 10 14  2  0
 14 15  1  0
 15 16  2  0
 16 17  1  0
 17 18  2  0
 18 19  1  0
 19 20  1  0
 18 21  1  0
 21 22  2  0
 22  9  1  0
 22 15  1  0
  1 23  1  0
  1 24  1  0
  3 25  1  0
  3 26  1  0
  3 27  1  0
  6 28  1  0
 12 29  1  0
 14 30  1  0
 16 31  1  0
 17 32  1  0
 19 33  1  0
 20 34  1  0
 20 35  1  0
 20 36  1  0
 21 37  1  0
M  CHG  1  12  -1
M  END
>  <UniqueID>  (71) 
71

>  <SMILES>  (71) 
C=C(C)C(=O)NC(=O)n1c(C([NH-])=O)cc2ccc(NC)cc21

>  <Energy>  (71) 
74.27238278477802

>  <Genealogy>  (71) 
C=C(C)C(=O)NC(=O)n1c(C([NH-])=O)cc2ccc(NC)cc21 (protonated)
C=C(C)C(=O)NC(=O)n1c(C([NH-])=O)cc2ccc(NC)cc21 (3D coordinates assigned)
C=C(C)C(=O)NC(=O)n1c(C([NH-])=O)cc2ccc(NC)cc21 (optimized conformer: 74.27238278477802 kcal/mol)

>  <smiles>  (71) 
C=C(C)C(=O)NC(=O)n1c(C(N)=O)cc2ccc(NC)cc21

>  <score_type>  (71) 
oracle

>  <origin>  (71) 
adg

>  <m_score__min__energy>  (71) 
-7.4500000000000002

>  <m_primary>  (71) 
energy

$$$$
71:0
     RDKit          3D

 44 45  0  0  0  0  0  0  0  0999 V2000
  142.1560  158.3750  134.8500 C   0  0  0  0  0  0  0  0  0  0  0  0
  143.4280  158.9260  134.2790 C   0  0  0  0  0  0  0  0  0  0  0  0
  143.5490  160.3140  134.0250 C   0  0  0  0  0  0  0  0  0  0  0  0
  144.7520  160.8510  133.5370 C   0  0  0  0  0  0  0  0  0  0  0  0
  145.8130  159.9780  133.3180 C   0  0  0  0  0  0  0  0  0  0  0  0
  147.0940  160.2340  132.8850 C   0  0  0  0  0  0  0  0  0  0  0  0
  147.7340  158.9970  132.8720 C   0  0  0  0  0  0  0  0  0  0  0  0
  149.1170  158.8040  132.3880 C   0  0  0  0  0  0  0  0  0  0  0  0
  149.6040  157.5040  132.0630 N   0  0  0  0  0  0  0  0  0  0  0  0
  149.8610  159.8050  132.2090 O   0  0  0  0  0  0  0  0  0  0  0  0
  146.8860  158.0150  133.2890 N   0  0  0  0  0  0  0  0  0  0  0  0
  147.1940  156.6300  133.5150 C   0  0  0  0  0  0  0  0  0  0  0  0
  147.5590  156.2430  134.6590 O   0  0  0  0  0  0  0  0  0  0  0  0
  147.1100  155.7200  132.4570 O   0  0  0  0  0  0  0  0  0  0  0  0
  146.8250  154.3380  132.6500 C   0  0  0  0  0  0  0  0  0  0  0  0
  148.0160  153.6500  133.0180 O   0  0  0  0  0  0  0  0  0  0  0  0
  149.2000  153.7350  132.2820 C   0  0  0  0  0  0  0  0  0  0  0  0
  149.8810  154.7970  132.2920 O   0  0  0  0  0  0  0  0  0  0  0  0
  149.6090  152.6190  131.5380 O   0  0  0  0  0  0  0  0  0  0  0  0
  149.4840  151.2430  131.9320 C   0  0  0  0  0  0  0  0  0  0  0  0
  150.3770  150.3440  131.0550 C   0  0  0  0  0  0  0  0  0  0  0  0
  149.9570  151.1430  133.3900 C   0  0  0  0  0  0  0  0  0  0  0  0
  148.0140  150.7880  131.8540 C   0  0  0  0  0  0  0  0  0  0  0  0
  145.7130  158.6310  133.5560 C   0  0  0  0  0  0  0  0  0  0  0  0
  144.5330  158.0740  134.0610 C   0  0  0  0  0  0  0  0  0  0  0  0
  142.2074  158.3972  135.9486 H   0  0  0  0  0  0  0  0  0  0  0  0
  141.3067  158.9859  134.5102 H   0  0  0  0  0  0  0  0  0  0  0  0
  142.0207  157.3376  134.5102 H   0  0  0  0  0  0  0  0  0  0  0  0
  142.6924  160.9783  134.2117 H   0  0  0  0  0  0  0  0  0  0  0  0
  144.8519  161.9276  133.3345 H   0  0  0  0  0  0  0  0  0  0  0  0
  147.5217  161.2088  132.6079 H   0  0  0  0  0  0  0  0  0  0  0  0
  148.9460  156.7210  131.8540 H   0  0  0  0  0  0  0  0  0  0  0  0
  146.0767  154.2269  133.4486 H   0  0  0  0  0  0  0  0  0  0  0  0
  146.4324  153.9126  131.7146 H   0  0  0  0  0  0  0  0  0  0  0  0
  151.0054  149.7114  131.6991 H   0  0  0  0  0  0  0  0  0  0  0  0
  149.7443  149.7065  130.4199 H   0  0  0  0  0  0  0  0  0  0  0  0
  151.0187  150.9724  130.4199 H   0  0  0  0  0  0  0  0  0  0  0  0
  149.1068  151.3227  134.0644 H   0  0  0  0  0  0  0  0  0  0  0  0
  150.3657  150.1386  133.5748 H   0  0  0  0  0  0  0  0  0  0  0  0
  150.7372  151.8961  133.5748 H   0  0  0  0  0  0  0  0  0  0  0  0
  147.6140  150.6642  132.8712 H   0  0  0  0  0  0  0  0  0  0  0  0
  147.4237  151.5455  131.3176 H   0  0  0  0  0  0  0  0  0  0  0  0
  147.9548  149.8295  131.3176 H   0  0  0  0  0  0  0  0  0  0  0  0
  144.4676  156.9986  134.2828 H   0  0  0  0  0  0  0  0  0  0  0  0
  1  2  1  0
  2  3  2  0
  3  4  1  0
  4  5  2  0
  5  6  1  0
  6  7  2  0
  7  8  1  0
  8  9  1  0
  8 10  2  0
  7 11  1  0
 11 12  1  0
 12 13  2  0
 12 14  1  0
 14 15  1  0
 15 16  1  0
 16 17  1  0
 17 18  2  0
 17 19  1  0
 19 20  1  0
 20 21  1  0
 20 22  1  0
 20 23  1  0
 11 24  1  0
 24 25  2  0
 25  2  1  0
 24  5  1  0
  1 26  1  0
  1 27  1  0
  1 28  1  0
  3 29  1  0
  4 30  1  0
  6 31  1  0
  9 32  1  0
 15 33  1  0
 15 34  1  0
 21 35  1  0
 21 36  1  0
 21 37  1  0
 22 38  1  0
 22 39  1  0
 22 40  1  0
 23 41  1  0
 23 42  1  0
 23 43  1  0
 25 44  1  0
M  CHG  1   9  -1
M  END
>  <UniqueID>  (72) 
72

>  <SMILES>  (72) 
Cc1ccc2cc(C([NH-])=O)n(C(=O)OCOC(=O)OC(C)(C)C)c2c1

>  <Energy>  (72) 
74.36057208588778

>  <Genealogy>  (72) 
Cc1ccc2cc(C([NH-])=O)n(C(=O)OCOC(=O)OC(C)(C)C)c2c1 (protonated)
Cc1ccc2cc(C([NH-])=O)n(C(=O)OCOC(=O)OC(C)(C)C)c2c1 (3D coordinates assigned)
Cc1ccc2cc(C([NH-])=O)n(C(=O)OCOC(=O)OC(C)(C)C)c2c1 (optimized conformer: 74.36057208588778 kcal/mol)

>  <smiles>  (72) 
Cc1ccc2cc(C(N)=O)n(C(=O)OCOC(=O)OC(C)(C)C)c2c1

>  <score_type>  (72) 
oracle

>  <origin>  (72) 
adg

>  <m_score__min__energy>  (72) 
-6.8099999999999996

>  <m_primary>  (72) 
energy

$$$$
72:0
     RDKit          3D

 36 37  0  0  0  0  0  0  0  0999 V2000
  148.9180  161.6270  130.4750 C   0  0  0  0  0  0  0  0  0  0  0  0
  148.7440  160.3680  131.2720 C   0  0  0  0  0  0  0  0  0  0  0  0
  149.8430  159.4960  131.4680 C   0  0  0  0  0  0  0  0  0  0  0  0
  149.6990  158.3240  132.2300 C   0  0  0  0  0  0  0  0  0  0  0  0
  148.4560  158.0680  132.8030 C   0  0  0  0  0  0  0  0  0  0  0  0
  148.0280  156.9910  133.5470 C   0  0  0  0  0  0  0  0  0  0  0  0
  146.6890  157.2510  133.8330 C   0  0  0  0  0  0  0  0  0  0  0  0
  145.8330  156.3470  134.6280 C   0  0  0  0  0  0  0  0  0  0  0  0
  144.4530  156.6370  134.8540 N   0  0  0  0  0  0  0  0  0  0  0  0
  146.3390  155.3210  135.1540 O   0  0  0  0  0  0  0  0  0  0  0  0
  146.3040  158.4380  133.2890 N   0  0  0  0  0  0  0  0  0  0  0  0
  144.9770  158.9850  133.2460 C   0  0  0  0  0  0  0  0  0  0  0  0
  144.0750  158.3800  132.6060 O   0  0  0  0  0  0  0  0  0  0  0  0
  144.6480  160.2270  133.9610 C   0  0  0  0  0  0  0  0  0  0  0  0
  145.5200  161.1290  134.0820 O   0  0  0  0  0  0  0  0  0  0  0  0
  143.3440  160.3930  134.5320 N   0  0  0  0  0  0  0  0  0  0  0  0
  142.2250  159.4610  134.3890 C   0  0  2  0  0  0  0  0  0  0  0  0
  140.9890  160.1740  133.8280 C   0  0  0  0  0  0  0  0  0  0  0  0
  141.9460  158.7620  135.6920 C   0  0  0  0  0  0  0  0  0  0  0  0
  141.3490  159.3770  136.6140 O   0  0  0  0  0  0  0  0  0  0  0  0
  142.2970  157.4300  135.8780 O   0  0  0  0  0  0  0  0  0  0  0  0
  147.3950  158.9230  132.6540 C   0  0  0  0  0  0  0  0  0  0  0  0
  147.5020  160.0820  131.8780 C   0  0  0  0  0  0  0  0  0  0  0  0
  149.0360  162.4805  131.1588 H   0  0  0  0  0  0  0  0  0  0  0  0
  149.8125  161.5389  129.8409 H   0  0  0  0  0  0  0  0  0  0  0  0
  148.0331  161.7848  129.8409 H   0  0  0  0  0  0  0  0  0  0  0  0
  150.8178  159.7384  131.0198 H   0  0  0  0  0  0  0  0  0  0  0  0
  150.5416  157.6308  132.3694 H   0  0  0  0  0  0  0  0  0  0  0  0
  148.6171  156.1131  133.8507 H   0  0  0  0  0  0  0  0  0  0  0  0
  143.8540  155.9550  135.3690 H   0  0  0  0  0  0  0  0  0  0  0  0
  144.0460  157.5660  134.6060 H   0  0  0  0  0  0  0  0  0  0  0  0
  142.5014  158.6844  133.6607 H   0  0  0  0  0  0  0  0  0  0  0  0
  140.3647  160.5341  134.6590 H   0  0  0  0  0  0  0  0  0  0  0  0
  141.3065  161.0277  133.2113 H   0  0  0  0  0  0  0  0  0  0  0  0
  140.4090  159.4717  133.2113 H   0  0  0  0  0  0  0  0  0  0  0  0
  146.6406  160.7528  131.7437 H   0  0  0  0  0  0  0  0  0  0  0  0
  1  2  1  0
  2  3  2  0
  3  4  1  0
  4  5  2  0
  5  6  1  0
  6  7  2  0
  7  8  1  0
  8  9  1  0
  8 10  2  0
  7 11  1  0
 11 12  1  0
 12 13  2  0
 12 14  1  0
 14 15  2  0
 14 16  1  0
 16 17  1  0
 17 18  1  0
 17 19  1  0
 19 20  2  0
 19 21  1  0
 11 22  1  0
 22 23  2  0
 23  2  1  0
 22  5  1  0
  1 24  1  0
  1 25  1  0
  1 26  1  0
  3 27  1  0
  4 28  1  0
  6 29  1  0
  9 30  1  0
  9 31  1  0
 17 32  1  6
 18 33  1  0
 18 34  1  0
 18 35  1  0
 23 36  1  0
M  CHG  2  16  -1  21  -1
M  END
>  <UniqueID>  (73) 
73

>  <SMILES>  (73) 
Cc1ccc2cc(C(N)=O)n(C(=O)C(=O)[N-][C@H](C)C(=O)[O-])c2c1

>  <Energy>  (73) 
72.37844150235043

>  <Genealogy>  (73) 
Cc1ccc2cc(C(N)=O)n(C(=O)C(=O)[N-]C(C)C(=O)[O-])c2c1 (protonated)
Cc1ccc2cc(C(N)=O)n(C(=O)C(=O)[N-][C@H](C)C(=O)[O-])c2c1 (chirality)
Cc1ccc2cc(C(N)=O)n(C(=O)C(=O)[N-][C@H](C)C(=O)[O-])c2c1 (3D coordinates assigned)
Cc1ccc2cc(C(N)=O)n(C(=O)C(=O)[N-][C@H](C)C(=O)[O-])c2c1 (optimized conformer: 72.37844150235043 kcal/mol)

>  <smiles>  (73) 
Cc1ccc2cc(C(N)=O)n(C(=O)C(=O)NC(C)C(=O)O)c2c1

>  <score_type>  (73) 
oracle

>  <origin>  (73) 
adg

>  <m_score__min__energy>  (73) 
-6.8700000000000001

>  <m_primary>  (73) 
energy

$$$$
73:0
     RDKit          3D

 52 53  0  0  0  0  0  0  0  0999 V2000
  139.0080  149.5940  129.8620 C   0  0  0  0  0  0  0  0  0  0  0  0
  139.6220  148.8130  130.9380 N   0  0  0  0  0  0  0  0  0  0  0  0
  139.8620  147.3840  130.7230 C   0  0  0  0  0  0  0  0  0  0  0  0
  140.1480  149.4760  132.1110 C   0  0  0  0  0  0  0  0  0  0  0  0
  140.7740  148.8220  132.9910 O   0  0  0  0  0  0  0  0  0  0  0  0
  139.9860  150.9250  132.3000 C   0  0  0  0  0  0  0  0  0  0  0  0
  138.8380  151.4330  132.2360 O   0  0  0  0  0  0  0  0  0  0  0  0
  141.1110  151.7780  132.5090 N   0  0  0  0  0  0  0  0  0  0  0  0
  141.3450  152.5490  133.7220 C   0  0  0  0  0  0  0  0  0  0  0  0
  140.9460  153.9780  133.4890 C   0  0  0  0  0  0  0  0  0  0  0  0
  139.9850  154.2110  132.7060 O   0  0  0  0  0  0  0  0  0  0  0  0
  141.6190  155.0720  134.1520 N   0  0  0  0  0  0  0  0  0  0  0  0
  141.5390  155.2270  135.6090 C   0  0  0  0  0  0  0  0  0  0  0  0
  142.4280  156.0040  133.4040 C   0  0  0  0  0  0  0  0  0  0  0  0
  143.2830  155.5800  132.5750 O   0  0  0  0  0  0  0  0  0  0  0  0
  142.2550  157.4200  133.5550 N   0  0  0  0  0  0  0  0  0  0  0  0
  141.0900  158.0990  133.7350 C   0  0  0  0  0  0  0  0  0  0  0  0
  139.7440  157.4950  133.7870 C   0  0  0  0  0  0  0  0  0  0  0  0
  139.1510  156.9710  132.6010 N   0  0  0  0  0  0  0  0  0  0  0  0
  139.1020  157.4510  134.8710 O   0  0  0  0  0  0  0  0  0  0  0  0
  141.3380  159.4670  133.8340 C   0  0  0  0  0  0  0  0  0  0  0  0
  142.7050  159.5960  133.7120 C   0  0  0  0  0  0  0  0  0  0  0  0
  143.5060  160.7310  133.7520 C   0  0  0  0  0  0  0  0  0  0  0  0
  144.8970  160.5650  133.6200 C   0  0  0  0  0  0  0  0  0  0  0  0
  145.4690  159.2700  133.4470 C   0  0  0  0  0  0  0  0  0  0  0  0
  146.9060  159.1060  133.3220 N   0  0  0  0  0  0  0  0  0  0  0  0
  147.5640  157.8950  133.8270 C   0  0  0  0  0  0  0  0  0  0  0  0
  147.7240  160.1560  132.7020 C   0  0  0  0  0  0  0  0  0  0  0  0
  144.6070  158.1440  133.4020 C   0  0  0  0  0  0  0  0  0  0  0  0
  143.2310  158.3470  133.5380 C   0  0  0  0  0  0  0  0  0  0  0  0
  138.3833  150.3886  130.2961 H   0  0  0  0  0  0  0  0  0  0  0  0
  139.7958  150.0451  129.2408 H   0  0  0  0  0  0  0  0  0  0  0  0
  138.3837  148.9349  129.2408 H   0  0  0  0  0  0  0  0  0  0  0  0
  139.9473  146.8762  131.6951 H   0  0  0  0  0  0  0  0  0  0  0  0
  139.0237  146.9526  130.1563 H   0  0  0  0  0  0  0  0  0  0  0  0
  140.7952  147.2501  130.1563 H   0  0  0  0  0  0  0  0  0  0  0  0
  140.7464  152.1302  134.5444 H   0  0  0  0  0  0  0  0  0  0  0  0
  142.4118  152.5036  133.9864 H   0  0  0  0  0  0  0  0  0  0  0  0
  141.9913  154.3507  136.0963 H   0  0  0  0  0  0  0  0  0  0  0  0
  142.0810  156.1352  135.9114 H   0  0  0  0  0  0  0  0  0  0  0  0
  140.4848  155.3113  135.9114 H   0  0  0  0  0  0  0  0  0  0  0  0
  138.7360  156.0140  132.5850 H   0  0  0  0  0  0  0  0  0  0  0  0
  140.6012  160.2709  133.9784 H   0  0  0  0  0  0  0  0  0  0  0  0
  143.0653  161.7303  133.8831 H   0  0  0  0  0  0  0  0  0  0  0  0
  145.5532  161.4473  133.6507 H   0  0  0  0  0  0  0  0  0  0  0  0
  147.5580  157.9060  134.9269 H   0  0  0  0  0  0  0  0  0  0  0  0
  147.0244  157.0069  133.4663 H   0  0  0  0  0  0  0  0  0  0  0  0
  148.6027  157.8645  133.4663 H   0  0  0  0  0  0  0  0  0  0  0  0
  148.1974  160.7637  133.4873 H   0  0  0  0  0  0  0  0  0  0  0  0
  148.5022  159.6935  132.0771 H   0  0  0  0  0  0  0  0  0  0  0  0
  147.0852  160.7974  132.0771 H   0  0  0  0  0  0  0  0  0  0  0  0
  145.0136  157.1314  133.2628 H   0  0  0  0  0  0  0  0  0  0  0  0
  1  2  1  0
  2  3  1  0
  2  4  1  0
  4  5  2  0
  4  6  1  0
  6  7  2  0
  6  8  1  0
  8  9  1  0
  9 10  1  0
 10 11  2  0
 10 12  1  0
 12 13  1  0
 12 14  1  0
 14 15  2  0
 14 16  1  0
 16 17  1  0
 17 18  1  0
 18 19  1  0
 18 20  2  0
 17 21  2  0
 21 22  1  0
 22 23  2  0
 23 24  1  0
 24 25  2  0
 25 26  1  0
 26 27  1  0
 26 28  1  0
 25 29  1  0
 29 30  2  0
 30 16  1  0
 30 22  1  0
  1 31  1  0
  1 32  1  0
  1 33  1  0
  3 34  1  0
  3 35  1  0
  3 36  1  0
  9 37  1  0
  9 38  1  0
 13 39  1  0
 13 40  1  0
 13 41  1  0
 19 42  1  0
 21 43  1  0
 23 44  1  0
 24 45  1  0
 27 46  1  0
 27 47  1  0
 27 48  1  0
 28 49  1  0
 28 50  1  0
 28 51  1  0
 29 52  1  0
M  CHG  2   8  -1  19  -1
M  END
>  <UniqueID>  (74) 
74

>  <SMILES>  (74) 
CN(C)C(=O)C(=O)[N-]CC(=O)N(C)C(=O)n1c(C([NH-])=O)cc2ccc(N(C)C)cc21

>  <Energy>  (74) 
97.62640954371349

>  <Genealogy>  (74) 
CN(C)C(=O)C(=O)[N-]CC(=O)N(C)C(=O)n1c(C([NH-])=O)cc2ccc(N(C)C)cc21 (protonated)
CN(C)C(=O)C(=O)[N-]CC(=O)N(C)C(=O)n1c(C([NH-])=O)cc2ccc(N(C)C)cc21 (3D coordinates assigned)
CN(C)C(=O)C(=O)[N-]CC(=O)N(C)C(=O)n1c(C([NH-])=O)cc2ccc(N(C)C)cc21 (optimized conformer: 97.62640954371349 kcal/mol)

>  <smiles>  (74) 
CN(C)C(=O)C(=O)NCC(=O)N(C)C(=O)n1c(C(N)=O)cc2ccc(N(C)C)cc21

>  <score_type>  (74) 
oracle

>  <origin>  (74) 
adg

>  <m_score__min__energy>  (74) 
-7.8700000000000001

>  <m_primary>  (74) 
energy

$$$$
74:0
     RDKit          3D

 40 41  0  0  0  0  0  0  0  0999 V2000
  139.9670  158.6140  133.7720 C   0  0  0  0  0  0  0  0  0  0  0  0
  141.0850  158.4840  134.7260 N   0  0  0  0  0  0  0  0  0  0  0  0
  140.9890  159.5440  135.7450 C   0  0  0  0  0  0  0  0  0  0  0  0
  141.0990  157.1560  135.3870 C   0  0  0  0  0  0  0  0  0  0  0  0
  142.2920  156.2860  134.9640 C   0  0  0  0  0  0  0  0  0  0  0  0
  143.4400  157.1010  134.7450 O   0  0  0  0  0  0  0  0  0  0  0  0
  143.7210  157.7010  133.5150 C   0  0  0  0  0  0  0  0  0  0  0  0
  142.9190  157.5790  132.5500 O   0  0  0  0  0  0  0  0  0  0  0  0
  144.9410  158.4410  133.3480 N   0  0  0  0  0  0  0  0  0  0  0  0
  145.1220  159.7860  133.4860 C   0  0  0  0  0  0  0  0  0  0  0  0
  144.0550  160.7930  133.6590 C   0  0  0  0  0  0  0  0  0  0  0  0
  142.6980  160.4820  133.3540 N   0  0  0  0  0  0  0  0  0  0  0  0
  144.3530  161.9580  134.0330 O   0  0  0  0  0  0  0  0  0  0  0  0
  146.4710  160.1130  133.3650 C   0  0  0  0  0  0  0  0  0  0  0  0
  147.1170  158.9190  133.1390 C   0  0  0  0  0  0  0  0  0  0  0  0
  148.4720  158.6560  132.9600 C   0  0  0  0  0  0  0  0  0  0  0  0
  148.8650  157.3190  132.7800 C   0  0  0  0  0  0  0  0  0  0  0  0
  147.9050  156.2770  132.7890 C   0  0  0  0  0  0  0  0  0  0  0  0
  148.3320  154.8470  132.6170 C   0  0  0  0  0  0  0  0  0  0  0  0
  148.1500  154.1590  133.8020 F   0  0  0  0  0  0  0  0  0  0  0  0
  149.6670  154.8000  132.2610 F   0  0  0  0  0  0  0  0  0  0  0  0
  146.5380  156.5830  132.9770 C   0  0  0  0  0  0  0  0  0  0  0  0
  146.1720  157.9250  133.1340 C   0  0  0  0  0  0  0  0  0  0  0  0
  139.0231  158.7238  134.3261 H   0  0  0  0  0  0  0  0  0  0  0  0
  140.1259  159.4997  133.1394 H   0  0  0  0  0  0  0  0  0  0  0  0
  139.9185  157.7154  133.1394 H   0  0  0  0  0  0  0  0  0  0  0  0
  141.9850  158.6240  134.2070 H   0  0  0  0  0  0  0  0  0  0  0  0
  141.0298  159.0935  136.7477 H   0  0  0  0  0  0  0  0  0  0  0  0
  141.8272  160.2459  135.6240 H   0  0  0  0  0  0  0  0  0  0  0  0
  140.0383  160.0839  135.6240 H   0  0  0  0  0  0  0  0  0  0  0  0
  141.1442  157.3071  136.4756 H   0  0  0  0  0  0  0  0  0  0  0  0
  140.1833  156.6280  135.0826 H   0  0  0  0  0  0  0  0  0  0  0  0
  142.5099  155.5567  135.7581 H   0  0  0  0  0  0  0  0  0  0  0  0
  142.0409  155.7602  134.0310 H   0  0  0  0  0  0  0  0  0  0  0  0
  142.4580  159.7180  132.6840 H   0  0  0  0  0  0  0  0  0  0  0  0
  146.9236  161.1131  133.4352 H   0  0  0  0  0  0  0  0  0  0  0  0
  149.2123  159.4696  132.9595 H   0  0  0  0  0  0  0  0  0  0  0  0
  149.9281  157.0790  132.6307 H   0  0  0  0  0  0  0  0  0  0  0  0
  147.7239  154.3822  131.8269 H   0  0  0  0  0  0  0  0  0  0  0  0
  145.7802  155.7860  132.9994 H   0  0  0  0  0  0  0  0  0  0  0  0
  1  2  1  0
  2  3  1  0
  2  4  1  0
  4  5  1  0
  5  6  1  0
  6  7  1  0
  7  8  2  0
  7  9  1  0
  9 10  1  0
 10 11  1  0
 11 12  1  0
 11 13  2  0
 10 14  2  0
 14 15  1  0
 15 16  2  0
 16 17  1  0
 17 18  2  0
 18 19  1  0
 19 20  1  0
 19 21  1  0
 18 22  1  0
 22 23  2  0
 23  9  1  0
 23 15  1  0
  1 24  1  0
  1 25  1  0
  1 26  1  0
  2 27  1  0
  3 28  1  0
  3 29  1  0
  3 30  1  0
  4 31  1  0
  4 32  1  0
  5 33  1  0
  5 34  1  0
 12 35  1  0
 14 36  1  0
 16 37  1  0
 17 38  1  0
 19 39  1  0
 22 40  1  0
M  CHG  2   2   1  12  -1
M  END
>  <UniqueID>  (75) 
75

>  <SMILES>  (75) 
C[NH+](C)CCOC(=O)n1c(C([NH-])=O)cc2ccc(C(F)F)cc21

>  <Energy>  (75) 
76.33553603540209

>  <Genealogy>  (75) 
C[NH+](C)CCOC(=O)n1c(C([NH-])=O)cc2ccc(C(F)F)cc21 (protonated)
C[NH+](C)CCOC(=O)n1c(C([NH-])=O)cc2ccc(C(F)F)cc21 (3D coordinates assigned)
C[NH+](C)CCOC(=O)n1c(C([NH-])=O)cc2ccc(C(F)F)cc21 (optimized conformer: 76.33553603540209 kcal/mol)

>  <smiles>  (75) 
CN(C)CCOC(=O)n1c(C(N)=O)cc2ccc(C(F)F)cc21

>  <score_type>  (75) 
oracle

>  <origin>  (75) 
adg

>  <m_score__min__energy>  (75) 
-4.9000000000000004

>  <m_primary>  (75) 
energy

$$$$
75:0
     RDKit          3D

 54 56  0  0  0  0  0  0  0  0999 V2000
  140.8260  149.7680  132.9520 C   0  0  0  0  0  0  0  0  0  0  0  0
  141.4790  151.0660  132.7210 N   0  0  0  0  0  0  0  0  0  0  0  0
  140.6080  152.1930  133.1400 C   0  0  0  0  0  0  0  0  0  0  0  0
  141.2150  153.5980  132.9200 C   0  0  0  0  0  0  0  0  0  0  0  0
  142.4290  153.9320  133.8170 C   0  0  0  0  0  0  0  0  0  0  0  0
  143.6970  153.4350  133.2560 N   0  0  0  0  0  0  0  0  0  0  0  0
  144.8740  154.2730  133.2710 C   0  0  0  0  0  0  0  0  0  0  0  0
  146.1700  153.6940  133.2960 C   0  0  0  0  0  0  0  0  0  0  0  0
  147.3190  154.5010  133.3120 C   0  0  0  0  0  0  0  0  0  0  0  0
  147.1460  155.8820  133.3190 C   0  0  0  0  0  0  0  0  0  0  0  0
  148.0820  156.8920  133.3190 C   0  0  0  0  0  0  0  0  0  0  0  0
  147.3460  158.0760  133.3270 C   0  0  0  0  0  0  0  0  0  0  0  0
  147.9630  159.4160  133.4190 C   0  0  0  0  0  0  0  0  0  0  0  0
  147.6050  160.4270  132.4790 N   0  0  0  0  0  0  0  0  0  0  0  0
  148.8280  159.6700  134.2980 O   0  0  0  0  0  0  0  0  0  0  0  0
  146.0100  157.8080  133.3220 N   0  0  0  0  0  0  0  0  0  0  0  0
  144.9160  158.7390  133.2840 C   0  0  0  0  0  0  0  0  0  0  0  0
  145.1030  159.9370  133.6270 O   0  0  0  0  0  0  0  0  0  0  0  0
  143.6610  158.3030  132.8350 O   0  0  0  0  0  0  0  0  0  0  0  0
  142.4040  158.4970  133.4970 C   0  0  0  0  0  0  0  0  0  0  0  0
  142.1690  159.9910  133.7880 C   0  0  0  0  0  0  0  0  0  0  0  0
  141.2530  157.9190  132.6530 C   0  0  0  0  0  0  0  0  0  0  0  0
  142.4730  157.7350  134.8290 C   0  0  0  0  0  0  0  0  0  0  0  0
  145.9050  156.4610  133.3210 C   0  0  0  0  0  0  0  0  0  0  0  0
  144.7440  155.6810  133.2810 C   0  0  0  0  0  0  0  0  0  0  0  0
  143.7760  152.0970  132.6410 C   0  0  0  0  0  0  0  0  0  0  0  0
  142.8410  151.0640  133.2980 C   0  0  0  0  0  0  0  0  0  0  0  0
  140.7364  149.5900  134.0338 H   0  0  0  0  0  0  0  0  0  0  0  0
  139.8243  149.7754  132.4975 H   0  0  0  0  0  0  0  0  0  0  0  0
  141.4290  148.9681  132.4975 H   0  0  0  0  0  0  0  0  0  0  0  0
  139.6704  152.1319  132.5680 H   0  0  0  0  0  0  0  0  0  0  0  0
  140.4623  152.0850  134.2249 H   0  0  0  0  0  0  0  0  0  0  0  0
  141.5358  153.6708  131.8703 H   0  0  0  0  0  0  0  0  0  0  0  0
  140.4278  154.3186  133.1866 H   0  0  0  0  0  0  0  0  0  0  0  0
  142.4961  155.0244  133.9278 H   0  0  0  0  0  0  0  0  0  0  0  0
  142.2750  153.4365  134.7869 H   0  0  0  0  0  0  0  0  0  0  0  0
  146.2754  152.5991  133.3029 H   0  0  0  0  0  0  0  0  0  0  0  0
  148.3247  154.0555  133.3188 H   0  0  0  0  0  0  0  0  0  0  0  0
  149.1770  156.7870  133.3138 H   0  0  0  0  0  0  0  0  0  0  0  0
  146.7050  160.9500  132.5700 H   0  0  0  0  0  0  0  0  0  0  0  0
  142.1435  160.1531  134.8757 H   0  0  0  0  0  0  0  0  0  0  0  0
  142.9851  160.5830  133.3481 H   0  0  0  0  0  0  0  0  0  0  0  0
  141.2106  160.3039  133.3481 H   0  0  0  0  0  0  0  0  0  0  0  0
  140.4710  157.5263  133.3195 H   0  0  0  0  0  0  0  0  0  0  0  0
  140.8299  158.7116  132.0183 H   0  0  0  0  0  0  0  0  0  0  0  0
  141.6360  157.1063  132.0183 H   0  0  0  0  0  0  0  0  0  0  0  0
  142.4084  158.4487  135.6635 H   0  0  0  0  0  0  0  0  0  0  0  0
  141.6355  157.0243  134.8887 H   0  0  0  0  0  0  0  0  0  0  0  0
  143.4245  157.1863  134.8887 H   0  0  0  0  0  0  0  0  0  0  0  0
  143.7508  156.1533  133.2578 H   0  0  0  0  0  0  0  0  0  0  0  0
  143.5057  152.1854  131.5784 H   0  0  0  0  0  0  0  0  0  0  0  0
  144.8059  151.7366  132.7802 H   0  0  0  0  0  0  0  0  0  0  0  0
  143.2765  150.0627  133.1646 H   0  0  0  0  0  0  0  0  0  0  0  0
  142.7481  151.3340  134.3603 H   0  0  0  0  0  0  0  0  0  0  0  0
  1  2  1  0
  2  3  1  0
  3  4  1  0
  4  5  1  0
  5  6  1  0
  6  7  1  0
  7  8  2  0
  8  9  1  0
  9 10  2  0
 10 11  1  0
 11 12  2  0
 12 13  1  0
 13 14  1  0
 13 15  2  0
 12 16  1  0
 16 17  1  0
 17 18  2  0
 17 19  1  0
 19 20  1  0
 20 21  1  0
 20 22  1  0
 20 23  1  0
 16 24  1  0
 24 25  2  0
  6 26  1  0
 26 27  1  0
 27  2  1  0
 25  7  1  0
 24 10  1  0
  1 28  1  0
  1 29  1  0
  1 30  1  0
  3 31  1  0
  3 32  1  0
  4 33  1  0
  4 34  1  0
  5 35  1  0
  5 36  1  0
  8 37  1  0
  9 38  1  0
 11 39  1  0
 14 40  1  0
 21 41  1  0
 21 42  1  0
 21 43  1  0
 22 44  1  0
 22 45  1  0
 22 46  1  0
 23 47  1  0
 23 48  1  0
 23 49  1  0
 25 50  1  0
 26 51  1  0
 26 52  1  0
 27 53  1  0
 27 54  1  0
M  CHG  1  14  -1
M  END
>  <UniqueID>  (76) 
76

>  <SMILES>  (76) 
CN1CCCN(c2ccc3cc(C([NH-])=O)n(C(=O)OC(C)(C)C)c3c2)CC1

>  <Energy>  (76) 
102.82774765501443

>  <Genealogy>  (76) 
CN1CCCN(c2ccc3cc(C([NH-])=O)n(C(=O)OC(C)(C)C)c3c2)CC1 (protonated)
CN1CCCN(c2ccc3cc(C([NH-])=O)n(C(=O)OC(C)(C)C)c3c2)CC1 (3D coordinates assigned)
CN1CCCN(c2ccc3cc(C([NH-])=O)n(C(=O)OC(C)(C)C)c3c2)CC1 (nonaromatic ring conformer: 102.82774765501443 kcal/mol)

>  <smiles>  (76) 
CN1CCCN(c2ccc3cc(C(N)=O)n(C(=O)OC(C)(C)C)c3c2)CC1

>  <score_type>  (76) 
oracle

>  <origin>  (76) 
adg

>  <m_score__min__energy>  (76) 
-5.8899999999999997

>  <m_primary>  (76) 
energy

$$$$
76:0
     RDKit          3D

 50 52  0  0  0  0  0  0  0  0999 V2000
  145.5210  159.8210  133.4100 C   0  0  0  0  0  0  0  0  0  0  0  0
  144.4190  158.8260  133.6170 C   0  0  0  0  0  0  0  0  0  0  0  0
  143.2540  159.1970  134.3310 C   0  0  0  0  0  0  0  0  0  0  0  0
  142.2040  158.2810  134.5120 C   0  0  0  0  0  0  0  0  0  0  0  0
  142.3400  157.0140  133.9530 C   0  0  0  0  0  0  0  0  0  0  0  0
  141.4890  155.9340  133.9960 C   0  0  0  0  0  0  0  0  0  0  0  0
  142.1300  154.9290  133.2730 C   0  0  0  0  0  0  0  0  0  0  0  0
  141.5290  153.6090  132.9880 C   0  0  0  0  0  0  0  0  0  0  0  0
  142.0080  152.8080  131.9070 N   0  0  0  0  0  0  0  0  0  0  0  0
  140.6070  153.1620  133.7200 O   0  0  0  0  0  0  0  0  0  0  0  0
  143.3320  155.3710  132.8030 N   0  0  0  0  0  0  0  0  0  0  0  0
  144.3190  154.6090  132.0880 C   0  0  0  0  0  0  0  0  0  0  0  0
  144.3180  154.6080  130.8270 O   0  0  0  0  0  0  0  0  0  0  0  0
  145.2750  153.8780  132.8050 O   0  0  0  0  0  0  0  0  0  0  0  0
  145.9580  154.3290  133.9430 C   0  0  0  0  0  0  0  0  0  0  0  0
  145.6880  153.8570  135.0820 O   0  0  0  0  0  0  0  0  0  0  0  0
  146.9750  155.3370  133.8000 N   0  0  0  0  0  0  0  0  0  0  0  0
  147.3490  155.7810  132.4490 C   0  0  0  0  0  0  0  0  0  0  0  0
  148.5700  156.7070  132.4670 C   0  0  0  0  0  0  0  0  0  0  0  0
  148.4150  157.7360  133.5040 N   0  0  0  0  0  0  0  0  0  0  0  0
  148.8520  159.0870  133.2630 C   0  0  0  0  0  0  0  0  0  0  0  0
  148.6720  159.9700  134.1460 O   0  0  0  0  0  0  0  0  0  0  0  0
  149.4820  159.4090  132.0510 O   0  0  0  0  0  0  0  0  0  0  0  0
  148.8820  160.1020  130.9900 C   0  0  0  0  0  0  0  0  0  0  0  0
  147.6270  160.2010  130.9010 O   0  0  0  0  0  0  0  0  0  0  0  0
  149.7420  160.6840  129.9160 C   0  0  0  0  0  0  0  0  0  0  0  0
  149.1390  160.4870  128.6880 F   0  0  0  0  0  0  0  0  0  0  0  0
  150.9820  160.0720  129.9170 F   0  0  0  0  0  0  0  0  0  0  0  0
  149.9110  162.0400  130.1300 F   0  0  0  0  0  0  0  0  0  0  0  0
  147.9080  157.3700  134.8370 C   0  0  0  0  0  0  0  0  0  0  0  0
  147.6940  155.8580  134.9720 C   0  0  0  0  0  0  0  0  0  0  0  0
  143.4460  156.6500  133.2290 C   0  0  0  0  0  0  0  0  0  0  0  0
  144.5150  157.5360  133.0490 C   0  0  0  0  0  0  0  0  0  0  0  0
  145.8968  160.1603  134.3865 H   0  0  0  0  0  0  0  0  0  0  0  0
  146.3393  159.3498  132.8458 H   0  0  0  0  0  0  0  0  0  0  0  0
  145.1355  160.6830  132.8458 H   0  0  0  0  0  0  0  0  0  0  0  0
  143.1701  160.2115  134.7478 H   0  0  0  0  0  0  0  0  0  0  0  0
  141.3022  158.5570  135.0782 H   0  0  0  0  0  0  0  0  0  0  0  0
  140.5104  155.8757  134.4950 H   0  0  0  0  0  0  0  0  0  0  0  0
  141.6000  151.8630  131.7330 H   0  0  0  0  0  0  0  0  0  0  0  0
  142.7380  153.1640  131.2520 H   0  0  0  0  0  0  0  0  0  0  0  0
  147.5822  154.8975  131.8366 H   0  0  0  0  0  0  0  0  0  0  0  0
  146.5019  156.3434  132.0293 H   0  0  0  0  0  0  0  0  0  0  0  0
  149.4722  156.1137  132.6767 H   0  0  0  0  0  0  0  0  0  0  0  0
  148.6609  157.1980  131.4868 H   0  0  0  0  0  0  0  0  0  0  0  0
  148.6350  157.6954  135.5956 H   0  0  0  0  0  0  0  0  0  0  0  0
  146.9366  157.8659  134.9802 H   0  0  0  0  0  0  0  0  0  0  0  0
  148.6712  155.3588  135.0495 H   0  0  0  0  0  0  0  0  0  0  0  0
  147.0969  155.6606  135.8745 H   0  0  0  0  0  0  0  0  0  0  0  0
  145.4070  157.2353  132.4798 H   0  0  0  0  0  0  0  0  0  0  0  0
  1  2  1  0
  2  3  2  0
  3  4  1  0
  4  5  2  0
  5  6  1  0
  6  7  2  0
  7  8  1  0
  8  9  1  0
  8 10  2  0
  7 11  1  0
 11 12  1  0
 12 13  2  0
 12 14  1  0
 14 15  1  0
 15 16  2  0
 15 17  1  0
 17 18  1  0
 18 19  1  0
 19 20  1  0
 20 21  1  0
 21 22  2  0
 21 23  1  0
 23 24  1  0
 24 25  2  0
 24 26  1  0
 26 27  1  0
 26 28  1  0
 26 29  1  0
 20 30  1  0
 30 31  1  0
 11 32  1  0
 32 33  2  0
 33  2  1  0
 32  5  1  0
 31 17  1  0
  1 34  1  0
  1 35  1  0
  1 36  1  0
  3 37  1  0
  4 38  1  0
  6 39  1  0
  9 40  1  0
  9 41  1  0
 18 42  1  0
 18 43  1  0
 19 44  1  0
 19 45  1  0
 30 46  1  0
 30 47  1  0
 31 48  1  0
 31 49  1  0
 33 50  1  0
M  END
>  <UniqueID>  (77) 
77

>  <SMILES>  (77) 
Cc1ccc2cc(C(N)=O)n(C(=O)OC(=O)N3CCN(C(=O)OC(=O)C(F)(F)F)CC3)c2c1

>  <Energy>  (77) 
88.01188740243373

>  <Genealogy>  (77) 
Cc1ccc2cc(C(N)=O)n(C(=O)OC(=O)N3CCN(C(=O)OC(=O)C(F)(F)F)CC3)c2c1 (3D coordinates assigned)
Cc1ccc2cc(C(N)=O)n(C(=O)OC(=O)N3CCN(C(=O)OC(=O)C(F)(F)F)CC3)c2c1 (nonaromatic ring conformer: 88.01188740243373 kcal/mol)

>  <smiles>  (77) 
Cc1ccc2cc(C(N)=O)n(C(=O)OC(=O)N3CCN(C(=O)OC(=O)C(F)(F)F)CC3)c2c1

>  <score_type>  (77) 
oracle

>  <origin>  (77) 
adg

>  <m_score__min__energy>  (77) 
-8.2200000000000006

>  <m_primary>  (77) 
energy

$$$$
77:0
     RDKit          3D

 40 41  0  0  0  0  0  0  0  0999 V2000
  144.4030  154.8090  131.3360 C   0  0  0  0  0  0  0  0  0  0  0  0
  143.7440  154.5700  132.6280 N   0  0  1  0  0  0  0  0  0  0  0  0
  143.8380  153.1820  133.0110 C   0  0  0  0  0  0  0  0  0  0  0  0
  144.7830  152.4610  132.5800 O   0  0  0  0  0  0  0  0  0  0  0  0
  142.8950  152.6470  133.8930 O   0  0  0  0  0  0  0  0  0  0  0  0
  142.0970  151.5120  133.5690 C   0  0  0  0  0  0  0  0  0  0  0  0
  140.8600  151.9550  132.7940 C   0  0  0  0  0  0  0  0  0  0  0  0
  141.0590  153.2260  132.2350 O   0  0  0  0  0  0  0  0  0  0  0  0
  144.3210  155.4190  133.6440 C   0  0  0  0  0  0  0  0  0  0  0  0
  145.1430  154.9490  134.4800 O   0  0  0  0  0  0  0  0  0  0  0  0
  144.0340  156.8270  133.6590 N   0  0  0  0  0  0  0  0  0  0  0  0
  142.8120  157.4250  133.7330 C   0  0  0  0  0  0  0  0  0  0  0  0
  141.5180  156.7280  133.8990 C   0  0  0  0  0  0  0  0  0  0  0  0
  141.3440  155.4180  133.3650 N   0  0  0  0  0  0  0  0  0  0  0  0
  140.5570  157.2830  134.4930 O   0  0  0  0  0  0  0  0  0  0  0  0
  142.9430  158.8110  133.6810 C   0  0  0  0  0  0  0  0  0  0  0  0
  144.2950  159.0450  133.5710 C   0  0  0  0  0  0  0  0  0  0  0  0
  144.9900  160.2460  133.4600 C   0  0  0  0  0  0  0  0  0  0  0  0
  146.3880  160.1890  133.3290 C   0  0  0  0  0  0  0  0  0  0  0  0
  147.0650  158.9400  133.3110 C   0  0  0  0  0  0  0  0  0  0  0  0
  148.5600  158.8640  133.1370 C   0  0  0  0  0  0  0  0  0  0  0  0
  149.2200  159.0190  134.3440 F   0  0  0  0  0  0  0  0  0  0  0  0
  148.9700  159.8610  132.2720 F   0  0  0  0  0  0  0  0  0  0  0  0
  148.9060  157.6340  132.6060 F   0  0  0  0  0  0  0  0  0  0  0  0
  146.3180  157.7440  133.4050 C   0  0  0  0  0  0  0  0  0  0  0  0
  144.9310  157.8320  133.5580 C   0  0  0  0  0  0  0  0  0  0  0  0
  145.4243  155.1794  131.5083 H   0  0  0  0  0  0  0  0  0  0  0  0
  144.4451  153.8689  130.7664 H   0  0  0  0  0  0  0  0  0  0  0  0
  143.8327  155.5576  130.7664 H   0  0  0  0  0  0  0  0  0  0  0  0
  142.7310  154.8090  132.5110 H   0  0  0  0  0  0  0  0  0  0  0  0
  142.6848  150.8163  132.9521 H   0  0  0  0  0  0  0  0  0  0  0  0
  141.7843  151.0107  134.4969 H   0  0  0  0  0  0  0  0  0  0  0  0
  140.6595  151.2329  131.9888 H   0  0  0  0  0  0  0  0  0  0  0  0
  140.0051  152.0003  133.4847 H   0  0  0  0  0  0  0  0  0  0  0  0
  141.3050  153.8310  132.9820 H   0  0  0  0  0  0  0  0  0  0  0  0
  141.9760  154.6350  133.6440 H   0  0  0  0  0  0  0  0  0  0  0  0
  142.1375  159.5591  133.7196 H   0  0  0  0  0  0  0  0  0  0  0  0
  144.4610  161.2103  133.4744 H   0  0  0  0  0  0  0  0  0  0  0  0
  146.9645  161.1216  133.2394 H   0  0  0  0  0  0  0  0  0  0  0  0
  146.8171  156.7648  133.3588 H   0  0  0  0  0  0  0  0  0  0  0  0
  1  2  1  0
  2  3  1  0
  3  4  2  0
  3  5  1  0
  5  6  1  0
  6  7  1  0
  7  8  1  0
  2  9  1  0
  9 10  2  0
  9 11  1  0
 11 12  1  0
 12 13  1  0
 13 14  1  0
 13 15  2  0
 12 16  2  0
 16 17  1  0
 17 18  2  0
 18 19  1  0
 19 20  2  0
 20 21  1  0
 21 22  1  0
 21 23  1  0
 21 24  1  0
 20 25  1  0
 25 26  2  0
 26 11  1  0
 26 17  1  0
  1 27  1  0
  1 28  1  0
  1 29  1  0
  2 30  1  6
  6 31  1  0
  6 32  1  0
  7 33  1  0
  7 34  1  0
  8 35  1  0
 14 36  1  0
 16 37  1  0
 18 38  1  0
 19 39  1  0
 25 40  1  0
M  CHG  2   2   1  14  -1
M  END
>  <UniqueID>  (78) 
78

>  <SMILES>  (78) 
C[NH+](C(=O)OCCO)C(=O)n1c(C([NH-])=O)cc2ccc(C(F)(F)F)cc21

>  <Energy>  (78) 
76.7633373875384

>  <Genealogy>  (78) 
C[NH+](C(=O)OCCO)C(=O)n1c(C([NH-])=O)cc2ccc(C(F)(F)F)cc21 (protonated)
C[NH+](C(=O)OCCO)C(=O)n1c(C([NH-])=O)cc2ccc(C(F)(F)F)cc21 (3D coordinates assigned)
C[NH+](C(=O)OCCO)C(=O)n1c(C([NH-])=O)cc2ccc(C(F)(F)F)cc21 (optimized conformer: 76.7633373875384 kcal/mol)

>  <smiles>  (78) 
CN(C(=O)OCCO)C(=O)n1c(C(N)=O)cc2ccc(C(F)(F)F)cc21

>  <score_type>  (78) 
oracle

>  <origin>  (78) 
adg

>  <m_score__min__energy>  (78) 
-4.4699999999999998

>  <m_primary>  (78) 
energy

$$$$
78:0
     RDKit          3D

 52 53  0  0  0  0  0  0  0  0999 V2000
  149.6060  154.8040  138.2730 C   0  0  0  0  0  0  0  0  0  0  0  0
  148.4820  153.8590  138.2760 N   0  0  0  0  0  0  0  0  0  0  0  0
  148.1880  153.0680  139.4750 C   0  0  0  0  0  0  0  0  0  0  0  0
  147.6490  153.6950  137.1070 C   0  0  0  0  0  0  0  0  0  0  0  0
  146.6720  152.8960  137.1440 O   0  0  0  0  0  0  0  0  0  0  0  0
  147.8770  154.5090  135.8570 C   0  0  0  0  0  0  0  0  0  0  0  0
  148.0290  153.6650  134.7170 O   0  0  0  0  0  0  0  0  0  0  0  0
  148.3200  154.1530  133.4360 C   0  0  0  0  0  0  0  0  0  0  0  0
  149.4570  153.9740  132.9180 O   0  0  0  0  0  0  0  0  0  0  0  0
  147.2530  154.8510  132.6540 C   0  0  0  0  0  0  0  0  0  0  0  0
  147.3130  156.3320  132.9070 C   0  0  0  0  0  0  0  0  0  0  0  0
  148.5310  157.0380  132.7330 C   0  0  0  0  0  0  0  0  0  0  0  0
  148.5830  158.4290  132.9160 C   0  0  0  0  0  0  0  0  0  0  0  0
  147.4070  159.0860  133.2680 C   0  0  0  0  0  0  0  0  0  0  0  0
  147.1650  160.4290  133.4550 C   0  0  0  0  0  0  0  0  0  0  0  0
  145.8060  160.5190  133.7470 C   0  0  0  0  0  0  0  0  0  0  0  0
  145.1190  161.7850  134.0780 C   0  0  0  0  0  0  0  0  0  0  0  0
  143.7480  161.9610  133.7280 N   0  0  0  0  0  0  0  0  0  0  0  0
  145.7380  162.7250  134.6440 O   0  0  0  0  0  0  0  0  0  0  0  0
  145.2310  159.2850  133.7400 N   0  0  0  0  0  0  0  0  0  0  0  0
  143.8390  158.9700  133.8850 C   0  0  0  0  0  0  0  0  0  0  0  0
  143.2530  158.2970  132.9930 O   0  0  0  0  0  0  0  0  0  0  0  0
  143.1390  159.4560  134.9970 O   0  0  0  0  0  0  0  0  0  0  0  0
  141.7670  159.7310  135.0250 C   0  0  0  0  0  0  0  0  0  0  0  0
  141.1990  160.3050  134.0540 O   0  0  0  0  0  0  0  0  0  0  0  0
  140.9630  159.3340  136.2210 C   0  0  0  0  0  0  0  0  0  0  0  0
  140.0540  157.8270  135.9130 S   0  0  0  0  0  0  0  0  0  0  0  0
  140.9840  156.7500  134.8450 C   0  0  0  0  0  0  0  0  0  0  0  0
  138.7300  158.1460  135.2740 O   0  0  0  0  0  0  0  0  0  0  0  0
  139.8140  157.1240  137.2200 O   0  0  0  0  0  0  0  0  0  0  0  0
  146.2240  158.4170  133.4470 C   0  0  0  0  0  0  0  0  0  0  0  0
  146.1390  157.0330  133.2620 C   0  0  0  0  0  0  0  0  0  0  0  0
  149.8883  155.0413  139.3093 H   0  0  0  0  0  0  0  0  0  0  0  0
  150.4638  154.3518  137.7537 H   0  0  0  0  0  0  0  0  0  0  0  0
  149.3079  155.7267  137.7537 H   0  0  0  0  0  0  0  0  0  0  0  0
  148.4099  153.6651  140.3717 H   0  0  0  0  0  0  0  0  0  0  0  0
  147.1249  152.7856  139.4764 H   0  0  0  0  0  0  0  0  0  0  0  0
  148.8086  152.1598  139.4764 H   0  0  0  0  0  0  0  0  0  0  0  0
  147.0156  155.1746  135.6993 H   0  0  0  0  0  0  0  0  0  0  0  0
  148.7992  155.0950  135.9842 H   0  0  0  0  0  0  0  0  0  0  0  0
  147.4031  154.6586  131.5814 H   0  0  0  0  0  0  0  0  0  0  0  0
  146.2695  154.4714  132.9680 H   0  0  0  0  0  0  0  0  0  0  0  0
  149.4429  156.4907  132.4522 H   0  0  0  0  0  0  0  0  0  0  0  0
  149.5243  158.9830  132.7852 H   0  0  0  0  0  0  0  0  0  0  0  0
  147.8897  161.2538  133.3881 H   0  0  0  0  0  0  0  0  0  0  0  0
  143.1070  161.1420  133.6320 H   0  0  0  0  0  0  0  0  0  0  0  0
  141.6404  159.1772  137.0734 H   0  0  0  0  0  0  0  0  0  0  0  0
  140.2442  160.1370  136.4412 H   0  0  0  0  0  0  0  0  0  0  0  0
  141.5825  156.0569  135.4544 H   0  0  0  0  0  0  0  0  0  0  0  0
  140.2924  156.1766  134.2102 H   0  0  0  0  0  0  0  0  0  0  0  0
  141.6520  157.3506  134.2102 H   0  0  0  0  0  0  0  0  0  0  0  0
  145.1829  156.5043  133.3896 H   0  0  0  0  0  0  0  0  0  0  0  0
  1  2  1  0
  2  3  1  0
  2  4  1  0
  4  5  2  0
  4  6  1  0
  6  7  1  0
  7  8  1  0
  8  9  2  0
  8 10  1  0
 10 11  1  0
 11 12  2  0
 12 13  1  0
 13 14  2  0
 14 15  1  0
 15 16  2  0
 16 17  1  0
 17 18  1  0
 17 19  2  0
 16 20  1  0
 20 21  1  0
 21 22  2  0
 21 23  1  0
 23 24  1  0
 24 25  2  0
 24 26  1  0
 26 27  1  0
 27 28  1  0
 27 29  2  0
 27 30  2  0
 20 31  1  0
 31 32  2  0
 32 11  1  0
 31 14  1  0
  1 33  1  0
  1 34  1  0
  1 35  1  0
  3 36  1  0
  3 37  1  0
  3 38  1  0
  6 39  1  0
  6 40  1  0
 10 41  1  0
 10 42  1  0
 12 43  1  0
 13 44  1  0
 15 45  1  0
 18 46  1  0
 26 47  1  0
 26 48  1  0
 28 49  1  0
 28 50  1  0
 28 51  1  0
 32 52  1  0
M  CHG  1  18  -1
M  END
>  <UniqueID>  (79) 
79

>  <SMILES>  (79) 
CN(C)C(=O)COC(=O)Cc1ccc2cc(C([NH-])=O)n(C(=O)OC(=O)CS(C)(=O)=O)c2c1

>  <Energy>  (79) 
75.9304078717307

>  <Genealogy>  (79) 
CN(C)C(=O)COC(=O)Cc1ccc2cc(C([NH-])=O)n(C(=O)OC(=O)CS(C)(=O)=O)c2c1 (protonated)
CN(C)C(=O)COC(=O)Cc1ccc2cc(C([NH-])=O)n(C(=O)OC(=O)CS(C)(=O)=O)c2c1 (3D coordinates assigned)
CN(C)C(=O)COC(=O)Cc1ccc2cc(C([NH-])=O)n(C(=O)OC(=O)CS(C)(=O)=O)c2c1 (optimized conformer: 75.9304078717307 kcal/mol)

>  <smiles>  (79) 
CN(C)C(=O)COC(=O)Cc1ccc2cc(C(N)=O)n(C(=O)OC(=O)CS(C)(=O)=O)c2c1

>  <score_type>  (79) 
oracle

>  <origin>  (79) 
adg

>  <m_score__min__energy>  (79) 
-7.9800000000000004

>  <m_primary>  (79) 
energy

$$$$
79:0
     RDKit          3D

 46 47  0  0  0  0  0  0  0  0999 V2000
  140.6540  151.1130  140.1230 C   0  0  0  0  0  0  0  0  0  0  0  0
  141.1510  151.4060  138.7070 C   0  0  2  0  0  0  0  0  0  0  0  0
  141.1030  152.8080  138.4420 O   0  0  0  0  0  0  0  0  0  0  0  0
  142.1480  153.5210  137.8430 C   0  0  0  0  0  0  0  0  0  0  0  0
  143.3380  153.3550  138.2310 O   0  0  0  0  0  0  0  0  0  0  0  0
  141.8680  154.4200  136.7590 N   0  0  0  0  0  0  0  0  0  0  0  0
  141.5880  155.7530  136.8350 C   0  0  0  0  0  0  0  0  0  0  0  0
  141.6700  156.5880  138.0510 C   0  0  0  0  0  0  0  0  0  0  0  0
  142.4750  156.1650  139.1480 N   0  0  0  0  0  0  0  0  0  0  0  0
  141.0060  157.6530  138.1470 O   0  0  0  0  0  0  0  0  0  0  0  0
  141.2830  156.2600  135.5740 C   0  0  0  0  0  0  0  0  0  0  0  0
  141.3940  155.1930  134.7140 C   0  0  0  0  0  0  0  0  0  0  0  0
  141.1880  155.1270  133.3400 C   0  0  0  0  0  0  0  0  0  0  0  0
  141.3430  153.8820  132.7100 C   0  0  0  0  0  0  0  0  0  0  0  0
  141.6930  152.7270  133.4550 C   0  0  0  0  0  0  0  0  0  0  0  0
  141.8340  151.4690  132.7680 N   0  0  0  0  0  0  0  0  0  0  0  0
  141.5960  150.1740  133.4130 C   0  0  0  0  0  0  0  0  0  0  0  0
  141.1460  149.1010  132.4040 C   0  0  0  0  0  0  0  0  0  0  0  0
  140.3530  149.6840  131.2990 N   0  0  0  0  0  0  0  0  0  0  0  0
  139.1110  150.3010  131.7940 C   0  0  0  0  0  0  0  0  0  0  0  0
  140.0210  148.6390  130.3170 C   0  0  0  0  0  0  0  0  0  0  0  0
  141.8920  152.8360  134.8530 C   0  0  0  0  0  0  0  0  0  0  0  0
  141.7480  154.0940  135.4520 C   0  0  0  0  0  0  0  0  0  0  0  0
  140.2900  150.6940  137.7100 C   0  0  0  0  0  0  0  0  0  0  0  0
  140.6260  150.6540  136.4960 O   0  0  0  0  0  0  0  0  0  0  0  0
  139.1370  150.0380  138.1240 O   0  0  0  0  0  0  0  0  0  0  0  0
  141.3622  151.5305  140.8539 H   0  0  0  0  0  0  0  0  0  0  0  0
  139.6650  151.5726  140.2669 H   0  0  0  0  0  0  0  0  0  0  0  0
  140.5773  150.0252  140.2669 H   0  0  0  0  0  0  0  0  0  0  0  0
  142.1903  151.0554  138.6239 H   0  0  0  0  0  0  0  0  0  0  0  0
  143.1670  155.3910  139.0390 H   0  0  0  0  0  0  0  0  0  0  0  0
  141.0109  157.2951  135.3199 H   0  0  0  0  0  0  0  0  0  0  0  0
  140.9121  156.0230  132.7646 H   0  0  0  0  0  0  0  0  0  0  0  0
  141.1909  153.8012  131.6236 H   0  0  0  0  0  0  0  0  0  0  0  0
  142.1210  151.4920  131.7630 H   0  0  0  0  0  0  0  0  0  0  0  0
  142.5272  149.8405  133.8944 H   0  0  0  0  0  0  0  0  0  0  0  0
  140.7912  150.3049  134.1513 H   0  0  0  0  0  0  0  0  0  0  0  0
  142.0369  148.6118  131.9834 H   0  0  0  0  0  0  0  0  0  0  0  0
  140.5111  148.3767  132.9354 H   0  0  0  0  0  0  0  0  0  0  0  0
  139.1140  150.2995  132.8940 H   0  0  0  0  0  0  0  0  0  0  0  0
  139.0452  151.3365  131.4289 H   0  0  0  0  0  0  0  0  0  0  0  0
  138.2460  149.7278  131.4289 H   0  0  0  0  0  0  0  0  0  0  0  0
  139.7288  147.7193  130.8449 H   0  0  0  0  0  0  0  0  0  0  0  0
  139.1871  148.9803  129.6861 H   0  0  0  0  0  0  0  0  0  0  0  0
  140.8990  148.4364  129.6861 H   0  0  0  0  0  0  0  0  0  0  0  0
  142.1536  151.9530  135.4546 H   0  0  0  0  0  0  0  0  0  0  0  0
  1  2  1  0
  2  3  1  0
  3  4  1  0
  4  5  2  0
  4  6  1  0
  6  7  1  0
  7  8  1  0
  8  9  1  0
  8 10  2  0
  7 11  2  0
 11 12  1  0
 12 13  2  0
 13 14  1  0
 14 15  2  0
 15 16  1  0
 16 17  1  0
 17 18  1  0
 18 19  1  0
 19 20  1  0
 19 21  1  0
 15 22  1  0
 22 23  2  0
  2 24  1  0
 24 25  2  0
 24 26  1  0
 23  6  1  0
 23 12  1  0
  1 27  1  0
  1 28  1  0
  1 29  1  0
  2 30  1  1
  9 31  1  0
 11 32  1  0
 13 33  1  0
 14 34  1  0
 16 35  1  0
 17 36  1  0
 17 37  1  0
 18 38  1  0
 18 39  1  0
 20 40  1  0
 20 41  1  0
 20 42  1  0
 21 43  1  0
 21 44  1  0
 21 45  1  0
 22 46  1  0
M  CHG  2   9  -1  26  -1
M  END
>  <UniqueID>  (80) 
80

>  <SMILES>  (80) 
C[C@H](OC(=O)n1c(C([NH-])=O)cc2ccc(NCCN(C)C)cc21)C(=O)[O-]

>  <Energy>  (80) 
79.85918166114989

>  <Genealogy>  (80) 
CC(OC(=O)n1c(C([NH-])=O)cc2ccc(NCCN(C)C)cc21)C(=O)[O-] (protonated)
C[C@H](OC(=O)n1c(C([NH-])=O)cc2ccc(NCCN(C)C)cc21)C(=O)[O-] (chirality)
C[C@H](OC(=O)n1c(C([NH-])=O)cc2ccc(NCCN(C)C)cc21)C(=O)[O-] (3D coordinates assigned)
C[C@H](OC(=O)n1c(C([NH-])=O)cc2ccc(NCCN(C)C)cc21)C(=O)[O-] (optimized conformer: 79.85918166114989 kcal/mol)

>  <smiles>  (80) 
CC(OC(=O)n1c(C(N)=O)cc2ccc(NCCN(C)C)cc21)C(=O)O

>  <score_type>  (80) 
oracle

>  <origin>  (80) 
adg

>  <m_score__min__energy>  (80) 
-7.2999999999999998

>  <m_primary>  (80) 
energy

$$$$
80:0
     RDKit          3D

 35 36  0  0  0  0  0  0  0  0999 V2000
  139.2000  155.5130  132.8830 C   0  0  0  0  0  0  0  0  0  0  0  0
  139.6130  156.6900  133.3530 C   0  0  0  0  0  0  0  0  0  0  0  0
  138.4500  158.0650  133.3830 S   0  0  0  0  0  0  0  0  0  0  0  0
  138.3710  158.2650  131.5700 C   0  0  0  0  0  0  0  0  0  0  0  0
  139.3340  159.3140  131.1110 C   0  0  0  0  0  0  0  0  0  0  0  0
  140.4500  158.9820  130.6280 O   0  0  0  0  0  0  0  0  0  0  0  0
  138.9870  160.6580  131.1910 O   0  0  0  0  0  0  0  0  0  0  0  0
  140.9880  156.8770  133.8690 C   0  0  0  0  0  0  0  0  0  0  0  0
  141.9720  156.3430  133.2850 O   0  0  0  0  0  0  0  0  0  0  0  0
  141.2220  157.6660  135.0430 N   0  0  0  0  0  0  0  0  0  0  0  0
  141.5330  158.9910  135.1110 C   0  0  0  0  0  0  0  0  0  0  0  0
  141.5810  159.9100  133.9500 C   0  0  0  0  0  0  0  0  0  0  0  0
  141.7780  159.4140  132.6240 N   0  0  0  0  0  0  0  0  0  0  0  0
  141.4600  161.1520  134.1260 O   0  0  0  0  0  0  0  0  0  0  0  0
  141.7430  159.3690  136.4370 C   0  0  0  0  0  0  0  0  0  0  0  0
  141.5490  158.2230  137.1790 C   0  0  0  0  0  0  0  0  0  0  0  0
  141.6400  158.0150  138.5510 C   0  0  0  0  0  0  0  0  0  0  0  0
  141.4100  156.7160  139.0340 C   0  0  0  0  0  0  0  0  0  0  0  0
  141.1030  155.6530  138.1470 C   0  0  0  0  0  0  0  0  0  0  0  0
  140.8880  154.2690  138.7060 C   0  0  0  0  0  0  0  0  0  0  0  0
  141.6340  154.1190  139.8620 F   0  0  0  0  0  0  0  0  0  0  0  0
  139.5480  154.0960  139.0070 F   0  0  0  0  0  0  0  0  0  0  0  0
  141.2730  153.2870  137.8080 F   0  0  0  0  0  0  0  0  0  0  0  0
  141.0030  155.9100  136.7600 C   0  0  0  0  0  0  0  0  0  0  0  0
  141.2350  157.2130  136.3110 C   0  0  0  0  0  0  0  0  0  0  0  0
  139.8922  154.6585  132.8547 H   0  0  0  0  0  0  0  0  0  0  0  0
  138.1670  155.3962  132.5234 H   0  0  0  0  0  0  0  0  0  0  0  0
  138.6236  157.3081  131.0899 H   0  0  0  0  0  0  0  0  0  0  0  0
  137.3525  158.5743  131.2925 H   0  0  0  0  0  0  0  0  0  0  0  0
  141.7370  158.3940  132.4100 H   0  0  0  0  0  0  0  0  0  0  0  0
  141.9010  160.0870  131.8350 H   0  0  0  0  0  0  0  0  0  0  0  0
  142.0073  160.3690  136.8114 H   0  0  0  0  0  0  0  0  0  0  0  0
  141.8841  158.8406  139.2357 H   0  0  0  0  0  0  0  0  0  0  0  0
  141.4689  156.5208  140.1149 H   0  0  0  0  0  0  0  0  0  0  0  0
  140.7494  155.1059  136.0535 H   0  0  0  0  0  0  0  0  0  0  0  0
  1  2  2  0
  2  3  1  0
  3  4  1  0
  4  5  1  0
  5  6  2  0
  5  7  1  0
  2  8  1  0
  8  9  2  0
  8 10  1  0
 10 11  1  0
 11 12  1  0
 12 13  1  0
 12 14  2  0
 11 15  2  0
 15 16  1  0
 16 17  2  0
 17 18  1  0
 18 19  2  0
 19 20  1  0
 20 21  1  0
 20 22  1  0
 20 23  1  0
 19 24  1  0
 24 25  2  0
 25 10  1  0
 25 16  1  0
  1 26  1  0
  1 27  1  0
  4 28  1  0
  4 29  1  0
 13 30  1  0
 13 31  1  0
 15 32  1  0
 17 33  1  0
 18 34  1  0
 24 35  1  0
M  CHG  1   7  -1
M  END
>  <UniqueID>  (81) 
81

>  <SMILES>  (81) 
C=C(SCC(=O)[O-])C(=O)n1c(C(N)=O)cc2ccc(C(F)(F)F)cc21

>  <Energy>  (81) 
69.6456334644845

>  <Genealogy>  (81) 
C=C(SCC(=O)[O-])C(=O)n1c(C(N)=O)cc2ccc(C(F)(F)F)cc21 (protonated)
C=C(SCC(=O)[O-])C(=O)n1c(C(N)=O)cc2ccc(C(F)(F)F)cc21 (3D coordinates assigned)
C=C(SCC(=O)[O-])C(=O)n1c(C(N)=O)cc2ccc(C(F)(F)F)cc21 (optimized conformer: 69.6456334644845 kcal/mol)

>  <smiles>  (81) 
C=C(SCC(=O)O)C(=O)n1c(C(N)=O)cc2ccc(C(F)(F)F)cc21

>  <score_type>  (81) 
oracle

>  <origin>  (81) 
adg

>  <m_score__min__energy>  (81) 
-6.4100000000000001

>  <m_primary>  (81) 
energy

$$$$
81:0
     RDKit          3D

 37 38  0  0  0  0  0  0  0  0999 V2000
  141.2590  159.3470  135.9140 C   0  0  0  0  0  0  0  0  0  0  0  0
  141.8180  158.6430  134.9300 C   0  0  0  0  0  0  0  0  0  0  0  0
  143.2040  158.4590  134.8130 O   0  0  0  0  0  0  0  0  0  0  0  0
  143.9060  158.3250  133.6070 C   0  0  0  0  0  0  0  0  0  0  0  0
  143.3680  157.7760  132.6080 O   0  0  0  0  0  0  0  0  0  0  0  0
  145.2430  158.8390  133.5080 N   0  0  0  0  0  0  0  0  0  0  0  0
  145.6500  160.1400  133.5530 C   0  0  0  0  0  0  0  0  0  0  0  0
  144.8060  161.3040  133.8960 C   0  0  0  0  0  0  0  0  0  0  0  0
  143.3910  161.2530  133.7450 N   0  0  0  0  0  0  0  0  0  0  0  0
  145.3390  162.3410  134.3720 O   0  0  0  0  0  0  0  0  0  0  0  0
  147.0190  160.2320  133.3060 C   0  0  0  0  0  0  0  0  0  0  0  0
  147.4420  158.9370  133.1120 C   0  0  0  0  0  0  0  0  0  0  0  0
  148.7080  158.4430  132.8120 C   0  0  0  0  0  0  0  0  0  0  0  0
  148.8470  157.0580  132.6260 C   0  0  0  0  0  0  0  0  0  0  0  0
  147.7300  156.1920  132.7350 C   0  0  0  0  0  0  0  0  0  0  0  0
  147.9170  154.7800  132.5180 N   0  0  0  0  0  0  0  0  0  0  0  0
  148.8500  153.9440  133.2730 C   0  0  0  0  0  0  0  0  0  0  0  0
  148.8770  152.5540  132.7180 C   0  0  0  0  0  0  0  0  0  0  0  0
  147.9910  152.1900  131.8980 O   0  0  0  0  0  0  0  0  0  0  0  0
  149.8680  151.6630  133.1380 O   0  0  0  0  0  0  0  0  0  0  0  0
  149.6780  150.7610  134.2210 C   0  0  0  0  0  0  0  0  0  0  0  0
  146.4590  156.7340  133.0460 C   0  0  0  0  0  0  0  0  0  0  0  0
  146.3530  158.1160  133.2400 C   0  0  0  0  0  0  0  0  0  0  0  0
  140.1656  159.4593  135.9575 H   0  0  0  0  0  0  0  0  0  0  0  0
  141.8910  159.8157  136.6827 H   0  0  0  0  0  0  0  0  0  0  0  0
  141.1624  158.1851  134.1747 H   0  0  0  0  0  0  0  0  0  0  0  0
  142.8840  160.3400  133.7350 H   0  0  0  0  0  0  0  0  0  0  0  0
  147.6309  161.1455  133.2732 H   0  0  0  0  0  0  0  0  0  0  0  0
  149.5731  159.1166  132.7233 H   0  0  0  0  0  0  0  0  0  0  0  0
  149.8369  156.6391  132.3924 H   0  0  0  0  0  0  0  0  0  0  0  0
  147.3610  154.3130  131.7640 H   0  0  0  0  0  0  0  0  0  0  0  0
  149.8584  154.3787  133.2091 H   0  0  0  0  0  0  0  0  0  0  0  0
  148.5205  153.9016  134.3216 H   0  0  0  0  0  0  0  0  0  0  0  0
  149.7918  151.3012  135.1724 H   0  0  0  0  0  0  0  0  0  0  0  0
  148.6688  150.3272  134.1641 H   0  0  0  0  0  0  0  0  0  0  0  0
  150.4265  149.9569  134.1641 H   0  0  0  0  0  0  0  0  0  0  0  0
  145.5759  156.0840  133.1330 H   0  0  0  0  0  0  0  0  0  0  0  0
  1  2  2  0
  2  3  1  0
  3  4  1  0
  4  5  2  0
  4  6  1  0
  6  7  1  0
  7  8  1  0
  8  9  1  0
  8 10  2  0
  7 11  2  0
 11 12  1  0
 12 13  2  0
 13 14  1  0
 14 15  2  0
 15 16  1  0
 16 17  1  0
 17 18  1  0
 18 19  2  0
 18 20  1  0
 20 21  1  0
 15 22  1  0
 22 23  2  0
 23  6  1  0
 23 12  1  0
  1 24  1  0
  1 25  1  0
  2 26  1  0
  9 27  1  0
 11 28  1  0
 13 29  1  0
 14 30  1  0
 16 31  1  0
 17 32  1  0
 17 33  1  0
 21 34  1  0
 21 35  1  0
 21 36  1  0
 22 37  1  0
M  CHG  1   9  -1
M  END
>  <UniqueID>  (82) 
82

>  <SMILES>  (82) 
C=COC(=O)n1c(C([NH-])=O)cc2ccc(NCC(=O)OC)cc21

>  <Energy>  (82) 
75.71241424499257

>  <Genealogy>  (82) 
C=COC(=O)n1c(C([NH-])=O)cc2ccc(NCC(=O)OC)cc21 (protonated)
C=COC(=O)n1c(C([NH-])=O)cc2ccc(NCC(=O)OC)cc21 (3D coordinates assigned)
C=COC(=O)n1c(C([NH-])=O)cc2ccc(NCC(=O)OC)cc21 (optimized conformer: 75.71241424499257 kcal/mol)

>  <smiles>  (82) 
C=COC(=O)n1c(C(N)=O)cc2ccc(NCC(=O)OC)cc21

>  <score_type>  (82) 
oracle

>  <origin>  (82) 
adg

>  <m_score__min__energy>  (82) 
-6.0899999999999999

>  <m_primary>  (82) 
energy

$$$$
82:0
     RDKit          3D

 35 36  0  0  0  0  0  0  0  0999 V2000
  137.7170  159.7350  131.0890 C   0  0  0  0  0  0  0  0  0  0  0  0
  138.5960  158.6170  131.0610 O   0  0  0  0  0  0  0  0  0  0  0  0
  139.4970  158.3390  132.0930 C   0  0  0  0  0  0  0  0  0  0  0  0
  140.5990  158.9490  132.1680 O   0  0  0  0  0  0  0  0  0  0  0  0
  139.1300  157.3400  133.1400 C   0  0  0  0  0  0  0  0  0  0  0  0
  140.2580  156.5200  133.4180 O   0  0  0  0  0  0  0  0  0  0  0  0
  140.2850  155.1430  133.1770 C   0  0  0  0  0  0  0  0  0  0  0  0
  139.2030  154.5270  132.9780 O   0  0  0  0  0  0  0  0  0  0  0  0
  141.5400  154.4310  133.2060 N   0  0  0  0  0  0  0  0  0  0  0  0
  142.7970  154.9630  133.1670 C   0  0  0  0  0  0  0  0  0  0  0  0
  143.1370  156.3920  133.2700 C   0  0  0  0  0  0  0  0  0  0  0  0
  142.4540  157.3640  132.4780 N   0  0  0  0  0  0  0  0  0  0  0  0
  143.9860  156.7680  134.1210 O   0  0  0  0  0  0  0  0  0  0  0  0
  143.7550  153.9710  132.9950 C   0  0  0  0  0  0  0  0  0  0  0  0
  143.0510  152.7920  132.9570 C   0  0  0  0  0  0  0  0  0  0  0  0
  143.5100  151.4860  132.8090 C   0  0  0  0  0  0  0  0  0  0  0  0
  142.5620  150.4500  132.8130 C   0  0  0  0  0  0  0  0  0  0  0  0
  141.1860  150.7330  132.9870 C   0  0  0  0  0  0  0  0  0  0  0  0
  140.1770  149.6240  132.9770 C   0  0  0  0  0  0  0  0  0  0  0  0
  139.5270  149.2500  130.9770 I   0  0  0  0  0  0  0  0  0  0  0  0
  140.7560  152.0710  133.1260 C   0  0  0  0  0  0  0  0  0  0  0  0
  141.7180  153.0910  133.0920 C   0  0  0  0  0  0  0  0  0  0  0  0
  137.5030  160.0071  132.1331 H   0  0  0  0  0  0  0  0  0  0  0  0
  138.1902  160.5863  130.5778 H   0  0  0  0  0  0  0  0  0  0  0  0
  136.7781  159.4761  130.5778 H   0  0  0  0  0  0  0  0  0  0  0  0
  138.8209  157.8639  134.0565 H   0  0  0  0  0  0  0  0  0  0  0  0
  138.2984  156.7160  132.7808 H   0  0  0  0  0  0  0  0  0  0  0  0
  141.6620  157.0840  131.8580 H   0  0  0  0  0  0  0  0  0  0  0  0
  142.7060  158.3740  132.5500 H   0  0  0  0  0  0  0  0  0  0  0  0
  144.8437  154.1019  132.9079 H   0  0  0  0  0  0  0  0  0  0  0  0
  144.5827  151.2721  132.6925 H   0  0  0  0  0  0  0  0  0  0  0  0
  142.8917  149.4091  132.6797 H   0  0  0  0  0  0  0  0  0  0  0  0
  140.6336  148.7118  133.3887 H   0  0  0  0  0  0  0  0  0  0  0  0
  139.3118  149.9162  133.5902 H   0  0  0  0  0  0  0  0  0  0  0  0
  139.6900  152.3080  133.2581 H   0  0  0  0  0  0  0  0  0  0  0  0
  1  2  1  0
  2  3  1  0
  3  4  2  0
  3  5  1  0
  5  6  1  0
  6  7  1  0
  7  8  2  0
  7  9  1  0
  9 10  1  0
 10 11  1  0
 11 12  1  0
 11 13  2  0
 10 14  2  0
 14 15  1  0
 15 16  2  0
 16 17  1  0
 17 18  2  0
 18 19  1  0
 19 20  1  0
 18 21  1  0
 21 22  2  0
 22  9  1  0
 22 15  1  0
  1 23  1  0
  1 24  1  0
  1 25  1  0
  5 26  1  0
  5 27  1  0
 12 28  1  0
 12 29  1  0
 14 30  1  0
 16 31  1  0
 17 32  1  0
 19 33  1  0
 19 34  1  0
 21 35  1  0
M  END
>  <UniqueID>  (83) 
83

>  <SMILES>  (83) 
COC(=O)COC(=O)n1c(C(N)=O)cc2ccc(CI)cc21

>  <Energy>  (83) 
69.60921955655023

>  <Genealogy>  (83) 
COC(=O)COC(=O)n1c(C(N)=O)cc2ccc(CI)cc21 (3D coordinates assigned)
COC(=O)COC(=O)n1c(C(N)=O)cc2ccc(CI)cc21 (optimized conformer: 69.60921955655023 kcal/mol)

>  <smiles>  (83) 
COC(=O)COC(=O)n1c(C(N)=O)cc2ccc(CI)cc21

>  <score_type>  (83) 
oracle

>  <origin>  (83) 
adg

>  <m_score__min__energy>  (83) 
-7.2800000000000002

>  <m_primary>  (83) 
energy

$$$$
83:0
     RDKit          3D

 45 46  0  0  0  0  0  0  0  0999 V2000
  140.8310  159.5560  137.4820 C   0  0  0  0  0  0  0  0  0  0  0  0
  140.6430  158.4720  136.4620 C   0  0  0  0  0  0  0  0  0  0  0  0
  139.4990  158.4750  135.6220 C   0  0  0  0  0  0  0  0  0  0  0  0
  139.3370  157.4920  134.6290 C   0  0  0  0  0  0  0  0  0  0  0  0
  140.3370  156.5320  134.4920 C   0  0  0  0  0  0  0  0  0  0  0  0
  140.4450  155.4760  133.6120 C   0  0  0  0  0  0  0  0  0  0  0  0
  141.6540  154.8520  133.9280 C   0  0  0  0  0  0  0  0  0  0  0  0
  142.1650  153.6220  133.2810 C   0  0  0  0  0  0  0  0  0  0  0  0
  142.9250  153.6880  132.0710 N   0  0  0  0  0  0  0  0  0  0  0  0
  141.9250  152.4950  133.7900 O   0  0  0  0  0  0  0  0  0  0  0  0
  142.2680  155.5080  134.9530 N   0  0  0  0  0  0  0  0  0  0  0  0
  143.5160  155.1830  135.5840 C   0  0  0  0  0  0  0  0  0  0  0  0
  143.5060  154.7390  136.7660 O   0  0  0  0  0  0  0  0  0  0  0  0
  144.7700  155.3800  134.8910 N   0  0  0  0  0  0  0  0  0  0  0  0
  145.6720  154.2390  134.6760 C   0  0  0  0  0  0  0  0  0  0  0  0
  146.6930  154.1760  135.7690 C   0  0  0  0  0  0  0  0  0  0  0  0
  147.5820  155.0620  135.8580 O   0  0  0  0  0  0  0  0  0  0  0  0
  146.6320  153.1640  136.7180 O   0  0  0  0  0  0  0  0  0  0  0  0
  145.1970  156.7250  134.4850 C   0  0  0  0  0  0  0  0  0  0  0  0
  144.3280  157.2310  133.3770 C   0  0  0  0  0  0  0  0  0  0  0  0
  143.7210  156.4140  132.6330 O   0  0  0  0  0  0  0  0  0  0  0  0
  144.1730  158.6430  133.1880 N   0  0  0  0  0  0  0  0  0  0  0  0
  143.3290  159.4850  134.0310 C   0  0  0  0  0  0  0  0  0  0  0  0
  141.9300  159.6240  133.4220 C   0  0  0  0  0  0  0  0  0  0  0  0
  141.6470  158.5210  132.6020 O   0  0  0  0  0  0  0  0  0  0  0  0
  141.4480  156.5230  135.2940 C   0  0  0  0  0  0  0  0  0  0  0  0
  141.6410  157.4890  136.2870 C   0  0  0  0  0  0  0  0  0  0  0  0
  140.7565  159.1262  138.4918 H   0  0  0  0  0  0  0  0  0  0  0  0
  141.8221  160.0148  137.3510 H   0  0  0  0  0  0  0  0  0  0  0  0
  140.0522  160.3218  137.3510 H   0  0  0  0  0  0  0  0  0  0  0  0
  138.7320  159.2532  135.7487 H   0  0  0  0  0  0  0  0  0  0  0  0
  138.4483  157.4817  133.9808 H   0  0  0  0  0  0  0  0  0  0  0  0
  139.7305  155.1864  132.8274 H   0  0  0  0  0  0  0  0  0  0  0  0
  143.2150  154.6020  131.6580 H   0  0  0  0  0  0  0  0  0  0  0  0
  143.2010  152.8100  131.5780 H   0  0  0  0  0  0  0  0  0  0  0  0
  145.0861  153.3081  134.6716 H   0  0  0  0  0  0  0  0  0  0  0  0
  146.1854  154.3633  133.7111 H   0  0  0  0  0  0  0  0  0  0  0  0
  145.1211  157.4056  135.3459 H   0  0  0  0  0  0  0  0  0  0  0  0
  146.2380  156.6798  134.1324 H   0  0  0  0  0  0  0  0  0  0  0  0
  143.2457  159.0299  135.0290 H   0  0  0  0  0  0  0  0  0  0  0  0
  143.7848  160.4833  134.1060 H   0  0  0  0  0  0  0  0  0  0  0  0
  141.1855  159.6766  134.2300 H   0  0  0  0  0  0  0  0  0  0  0  0
  141.8917  160.5412  132.8159 H   0  0  0  0  0  0  0  0  0  0  0  0
  142.5200  158.2030  132.2430 H   0  0  0  0  0  0  0  0  0  0  0  0
  142.5449  157.4829  136.9139 H   0  0  0  0  0  0  0  0  0  0  0  0
  1  2  1  0
  2  3  2  0
  3  4  1  0
  4  5  2  0
  5  6  1  0
  6  7  2  0
  7  8  1  0
  8  9  1  0
  8 10  2  0
  7 11  1  0
 11 12  1  0
 12 13  2  0
 12 14  1  0
 14 15  1  0
 15 16  1  0
 16 17  2  0
 16 18  1  0
 14 19  1  0
 19 20  1  0
 20 21  2  0
 20 22  1  0
 22 23  1  0
 23 24  1  0
 24 25  1  0
 11 26  1  0
 26 27  2  0
 27  2  1  0
 26  5  1  0
  1 28  1  0
  1 29  1  0
  1 30  1  0
  3 31  1  0
  4 32  1  0
  6 33  1  0
  9 34  1  0
  9 35  1  0
 15 36  1  0
 15 37  1  0
 19 38  1  0
 19 39  1  0
 23 40  1  0
 23 41  1  0
 24 42  1  0
 24 43  1  0
 25 44  1  0
 27 45  1  0
M  CHG  2  18  -1  22  -1
M  END
>  <UniqueID>  (84) 
84

>  <SMILES>  (84) 
Cc1ccc2cc(C(N)=O)n(C(=O)N(CC(=O)[O-])CC(=O)[N-]CCO)c2c1

>  <Energy>  (84) 
74.6351963257993

>  <Genealogy>  (84) 
Cc1ccc2cc(C(N)=O)n(C(=O)N(CC(=O)[O-])CC(=O)[N-]CCO)c2c1 (protonated)
Cc1ccc2cc(C(N)=O)n(C(=O)N(CC(=O)[O-])CC(=O)[N-]CCO)c2c1 (3D coordinates assigned)
Cc1ccc2cc(C(N)=O)n(C(=O)N(CC(=O)[O-])CC(=O)[N-]CCO)c2c1 (optimized conformer: 74.6351963257993 kcal/mol)

>  <smiles>  (84) 
Cc1ccc2cc(C(N)=O)n(C(=O)N(CC(=O)O)CC(=O)NCCO)c2c1

>  <score_type>  (84) 
oracle

>  <origin>  (84) 
adg

>  <m_score__min__energy>  (84) 
-5.8700000000000001

>  <m_primary>  (84) 
energy

$$$$
84:0
     RDKit          3D

 47 49  0  0  0  0  0  0  0  0999 V2000
  147.7330  160.1040  131.1070 C   0  0  0  0  0  0  0  0  0  0  0  0
  148.5370  160.0310  132.3390 N   0  0  0  0  0  0  0  0  0  0  0  0
  147.7060  159.7400  133.5360 C   0  0  0  0  0  0  0  0  0  0  0  0
  148.0030  158.3780  134.1980 C   0  0  0  0  0  0  0  0  0  0  0  0
  148.2200  157.2610  133.1610 C   0  0  0  0  0  0  0  0  0  0  0  0
  146.9540  156.9150  132.4980 N   0  0  0  0  0  0  0  0  0  0  0  0
  145.7110  156.6760  133.1900 C   0  0  0  0  0  0  0  0  0  0  0  0
  145.3160  155.3700  133.5940 C   0  0  0  0  0  0  0  0  0  0  0  0
  144.1050  155.1650  134.2750 C   0  0  0  0  0  0  0  0  0  0  0  0
  143.3060  156.2720  134.5360 C   0  0  0  0  0  0  0  0  0  0  0  0
  142.1010  156.3590  135.1950 C   0  0  0  0  0  0  0  0  0  0  0  0
  141.7620  157.7100  135.1680 C   0  0  0  0  0  0  0  0  0  0  0  0
  140.4850  158.2390  135.6930 C   0  0  0  0  0  0  0  0  0  0  0  0
  140.4170  158.8540  136.9760 N   0  0  0  0  0  0  0  0  0  0  0  0
  139.4480  158.1870  134.9780 O   0  0  0  0  0  0  0  0  0  0  0  0
  142.7250  158.4310  134.5240 N   0  0  0  0  0  0  0  0  0  0  0  0
  142.7920  159.8550  134.3500 C   0  0  0  0  0  0  0  0  0  0  0  0
  141.7860  160.4840  133.9200 O   0  0  0  0  0  0  0  0  0  0  0  0
  143.9670  160.5390  134.6800 O   0  0  0  0  0  0  0  0  0  0  0  0
  144.7560  161.2460  133.7250 C   0  0  0  0  0  0  0  0  0  0  0  0
  144.8880  162.6810  134.1210 C   0  0  0  0  0  0  0  0  0  0  0  0
  144.1520  163.5530  133.5890 O   0  0  0  0  0  0  0  0  0  0  0  0
  145.8020  163.0550  135.0980 O   0  0  0  0  0  0  0  0  0  0  0  0
  143.6600  157.5360  134.1400 C   0  0  0  0  0  0  0  0  0  0  0  0
  144.8690  157.7730  133.4780 C   0  0  0  0  0  0  0  0  0  0  0  0
  149.3020  157.6540  132.1210 C   0  0  0  0  0  0  0  0  0  0  0  0
  149.7030  159.1390  132.1860 C   0  0  0  0  0  0  0  0  0  0  0  0
  146.6690  160.2006  131.3687 H   0  0  0  0  0  0  0  0  0  0  0  0
  148.0460  160.9774  130.5161 H   0  0  0  0  0  0  0  0  0  0  0  0
  147.8836  159.1885  130.5161 H   0  0  0  0  0  0  0  0  0  0  0  0
  147.8838  160.5308  134.2796 H   0  0  0  0  0  0  0  0  0  0  0  0
  146.6613  159.7032  133.1935 H   0  0  0  0  0  0  0  0  0  0  0  0
  148.9112  158.4730  134.8113 H   0  0  0  0  0  0  0  0  0  0  0  0
  147.1319  158.1041  134.8113 H   0  0  0  0  0  0  0  0  0  0  0  0
  148.5842  156.3718  133.6964 H   0  0  0  0  0  0  0  0  0  0  0  0
  146.9360  156.8620  131.4530 H   0  0  0  0  0  0  0  0  0  0  0  0
  145.9664  154.5115  133.3704 H   0  0  0  0  0  0  0  0  0  0  0  0
  143.7977  154.1577  134.5926 H   0  0  0  0  0  0  0  0  0  0  0  0
  141.5273  155.5365  135.6471 H   0  0  0  0  0  0  0  0  0  0  0  0
  139.5030  158.9890  137.4600 H   0  0  0  0  0  0  0  0  0  0  0  0
  145.7560  160.7907  133.6723 H   0  0  0  0  0  0  0  0  0  0  0  0
  144.2639  161.1899  132.7428 H   0  0  0  0  0  0  0  0  0  0  0  0
  145.1585  158.7936  133.1873 H   0  0  0  0  0  0  0  0  0  0  0  0
  150.1983  157.0427  132.3026 H   0  0  0  0  0  0  0  0  0  0  0  0
  148.8727  157.4773  131.1238 H   0  0  0  0  0  0  0  0  0  0  0  0
  150.3752  159.2861  133.0442 H   0  0  0  0  0  0  0  0  0  0  0  0
  150.1981  159.3943  131.2375 H   0  0  0  0  0  0  0  0  0  0  0  0
  1  2  1  0
  2  3  1  0
  3  4  1  0
  4  5  1  0
  5  6  1  0
  6  7  1  0
  7  8  2  0
  8  9  1  0
  9 10  2  0
 10 11  1  0
 11 12  2  0
 12 13  1  0
 13 14  1  0
 13 15  2  0
 12 16  1  0
 16 17  1  0
 17 18  2  0
 17 19  1  0
 19 20  1  0
 20 21  1  0
 21 22  2  0
 21 23  1  0
 16 24  1  0
 24 25  2  0
  5 26  1  0
 26 27  1  0
 27  2  1  0
 25  7  1  0
 24 10  1  0
  1 28  1  0
  1 29  1  0
  1 30  1  0
  3 31  1  0
  3 32  1  0
  4 33  1  0
  4 34  1  0
  5 35  1  0
  6 36  1  0
  8 37  1  0
  9 38  1  0
 11 39  1  0
 14 40  1  0
 20 41  1  0
 20 42  1  0
 25 43  1  0
 26 44  1  0
 26 45  1  0
 27 46  1  0
 27 47  1  0
M  CHG  2  14  -1  23  -1
M  END
>  <UniqueID>  (85) 
85

>  <SMILES>  (85) 
CN1CCC(Nc2ccc3cc(C([NH-])=O)n(C(=O)OCC(=O)[O-])c3c2)CC1

>  <Energy>  (85) 
94.29452727641794

>  <Genealogy>  (85) 
CN1CCC(Nc2ccc3cc(C([NH-])=O)n(C(=O)OCC(=O)[O-])c3c2)CC1 (protonated)
CN1CCC(Nc2ccc3cc(C([NH-])=O)n(C(=O)OCC(=O)[O-])c3c2)CC1 (3D coordinates assigned)
CN1CCC(Nc2ccc3cc(C([NH-])=O)n(C(=O)OCC(=O)[O-])c3c2)CC1 (nonaromatic ring conformer: 94.29452727641794 kcal/mol)

>  <smiles>  (85) 
CN1CCC(Nc2ccc3cc(C(N)=O)n(C(=O)OCC(=O)O)c3c2)CC1

>  <score_type>  (85) 
oracle

>  <origin>  (85) 
adg

>  <m_score__min__energy>  (85) 
-7.7400000000000002

>  <m_primary>  (85) 
energy

$$$$
85:0
     RDKit          3D

 40 41  0  0  0  0  0  0  0  0999 V2000
  145.5930  153.0660  132.6030 C   0  0  0  0  0  0  0  0  0  0  0  0
  146.2070  154.3680  132.8820 N   0  0  0  0  0  0  0  0  0  0  0  0
  145.4200  155.5980  132.6990 C   0  0  0  0  0  0  0  0  0  0  0  0
  145.4260  156.4220  133.9570 C   0  0  0  0  0  0  0  0  0  0  0  0
  145.5700  155.8540  135.0730 O   0  0  0  0  0  0  0  0  0  0  0  0
  145.2410  157.8450  133.9050 N   0  0  0  0  0  0  0  0  0  0  0  0
  146.1850  158.8060  133.7120 C   0  0  0  0  0  0  0  0  0  0  0  0
  147.6460  158.5790  133.7190 C   0  0  0  0  0  0  0  0  0  0  0  0
  148.1890  157.3270  134.1400 N   0  0  0  0  0  0  0  0  0  0  0  0
  148.4270  159.4870  133.3290 O   0  0  0  0  0  0  0  0  0  0  0  0
  145.5890  160.0610  133.6040 C   0  0  0  0  0  0  0  0  0  0  0  0
  144.2380  159.8340  133.7490 C   0  0  0  0  0  0  0  0  0  0  0  0
  143.1720  160.7280  133.7370 C   0  0  0  0  0  0  0  0  0  0  0  0
  141.8770  160.2100  133.9160 C   0  0  0  0  0  0  0  0  0  0  0  0
  141.6690  158.8190  134.0950 C   0  0  0  0  0  0  0  0  0  0  0  0
  140.2670  158.3090  134.3120 C   0  0  0  0  0  0  0  0  0  0  0  0
  139.8630  158.5980  135.6030 F   0  0  0  0  0  0  0  0  0  0  0  0
  140.2460  156.9380  134.1290 F   0  0  0  0  0  0  0  0  0  0  0  0
  139.3690  158.8880  133.4310 F   0  0  0  0  0  0  0  0  0  0  0  0
  142.7800  157.9430  134.1070 C   0  0  0  0  0  0  0  0  0  0  0  0
  144.0560  158.4890  133.9330 C   0  0  0  0  0  0  0  0  0  0  0  0
  147.5730  154.4030  133.3580 C   0  0  0  0  0  0  0  0  0  0  0  0
  148.3650  155.2740  132.8990 O   0  0  0  0  0  0  0  0  0  0  0  0
  148.0540  153.4640  134.4400 C   0  0  0  0  0  0  0  0  0  0  0  0
  147.7410  153.9720  135.8140 C   0  0  0  0  0  0  0  0  0  0  0  0
  148.0200  155.1590  136.1300 O   0  0  0  0  0  0  0  0  0  0  0  0
  147.1810  153.1220  136.7590 O   0  0  0  0  0  0  0  0  0  0  0  0
  145.3553  152.5619  133.5514 H   0  0  0  0  0  0  0  0  0  0  0  0
  144.6692  153.2127  132.0242 H   0  0  0  0  0  0  0  0  0  0  0  0
  146.2939  152.4466  132.0242 H   0  0  0  0  0  0  0  0  0  0  0  0
  145.8557  156.1873  131.8787 H   0  0  0  0  0  0  0  0  0  0  0  0
  144.3821  155.3228  132.4601 H   0  0  0  0  0  0  0  0  0  0  0  0
  149.2210  157.1670  134.1120 H   0  0  0  0  0  0  0  0  0  0  0  0
  147.5790  156.5750  134.5300 H   0  0  0  0  0  0  0  0  0  0  0  0
  146.0900  161.0262  133.4384 H   0  0  0  0  0  0  0  0  0  0  0  0
  143.3370  161.8059  133.5921 H   0  0  0  0  0  0  0  0  0  0  0  0
  141.0144  160.8926  133.9172 H   0  0  0  0  0  0  0  0  0  0  0  0
  142.6439  156.8608  134.2494 H   0  0  0  0  0  0  0  0  0  0  0  0
  147.5656  152.4878  134.3040 H   0  0  0  0  0  0  0  0  0  0  0  0
  149.1474  153.3818  134.3526 H   0  0  0  0  0  0  0  0  0  0  0  0
  1  2  1  0
  2  3  1  0
  3  4  1  0
  4  5  2  0
  4  6  1  0
  6  7  1  0
  7  8  1  0
  8  9  1  0
  8 10  2  0
  7 11  2  0
 11 12  1  0
 12 13  2  0
 13 14  1  0
 14 15  2  0
 15 16  1  0
 16 17  1  0
 16 18  1  0
 16 19  1  0
 15 20  1  0
 20 21  2  0
  2 22  1  0
 22 23  2  0
 22 24  1  0
 24 25  1  0
 25 26  2  0
 25 27  1  0
 21  6  1  0
 21 12  1  0
  1 28  1  0
  1 29  1  0
  1 30  1  0
  3 31  1  0
  3 32  1  0
  9 33  1  0
  9 34  1  0
 11 35  1  0
 13 36  1  0
 14 37  1  0
 20 38  1  0
 24 39  1  0
 24 40  1  0
M  CHG  1  27  -1
M  END
>  <UniqueID>  (86) 
86

>  <SMILES>  (86) 
CN(CC(=O)n1c(C(N)=O)cc2ccc(C(F)(F)F)cc21)C(=O)CC(=O)[O-]

>  <Energy>  (86) 
75.55820776212362

>  <Genealogy>  (86) 
CN(CC(=O)n1c(C(N)=O)cc2ccc(C(F)(F)F)cc21)C(=O)CC(=O)[O-] (protonated)
CN(CC(=O)n1c(C(N)=O)cc2ccc(C(F)(F)F)cc21)C(=O)CC(=O)[O-] (3D coordinates assigned)
CN(CC(=O)n1c(C(N)=O)cc2ccc(C(F)(F)F)cc21)C(=O)CC(=O)[O-] (optimized conformer: 75.55820776212362 kcal/mol)

>  <smiles>  (86) 
CN(CC(=O)n1c(C(N)=O)cc2ccc(C(F)(F)F)cc21)C(=O)CC(=O)O

>  <score_type>  (86) 
oracle

>  <origin>  (86) 
adg

>  <m_score__min__energy>  (86) 
-6.4900000000000002

>  <m_primary>  (86) 
energy

$$$$
86:0
     RDKit          3D

 36 37  0  0  0  0  0  0  0  0999 V2000
  149.2720  157.7560  132.1950 N   0  0  0  0  0  0  0  0  0  0  0  0
  148.5740  158.9190  132.6330 C   0  0  0  0  0  0  0  0  0  0  0  0
  149.1650  160.0310  132.6300 O   0  0  0  0  0  0  0  0  0  0  0  0
  147.1520  158.8480  133.0310 C   0  0  0  0  0  0  0  0  0  0  0  0
  146.2640  159.9120  132.8890 C   0  0  0  0  0  0  0  0  0  0  0  0
  145.0410  159.4220  133.2840 C   0  0  0  0  0  0  0  0  0  0  0  0
  143.8050  160.0560  133.3580 C   0  0  0  0  0  0  0  0  0  0  0  0
  142.7120  159.3130  133.8360 C   0  0  0  0  0  0  0  0  0  0  0  0
  142.8740  157.9620  134.2290 C   0  0  0  0  0  0  0  0  0  0  0  0
  141.7080  157.1930  134.7830 C   0  0  0  0  0  0  0  0  0  0  0  0
  141.0360  158.0310  136.2510 P   0  0  1  0  0  0  0  0  0  0  0  0
  140.9730  157.0490  137.3980 O   0  0  0  0  0  0  0  0  0  0  0  0
  142.0380  159.3260  136.6770 O   0  0  0  0  0  0  0  0  0  0  0  0
  139.4760  158.6040  135.9230 O   0  0  0  0  0  0  0  0  0  0  0  0
  144.1470  157.3540  134.1490 C   0  0  0  0  0  0  0  0  0  0  0  0
  145.2130  158.1110  133.6500 C   0  0  0  0  0  0  0  0  0  0  0  0
  146.5060  157.7450  133.5020 N   0  0  0  0  0  0  0  0  0  0  0  0
  147.0810  156.4800  133.8670 C   0  0  0  0  0  0  0  0  0  0  0  0
  147.4490  155.6730  132.9700 O   0  0  0  0  0  0  0  0  0  0  0  0
  147.2140  156.1410  135.2160 O   0  0  0  0  0  0  0  0  0  0  0  0
  147.6070  154.8430  135.6510 C   0  0  0  0  0  0  0  0  0  0  0  0
  148.4250  154.9440  136.7930 O   0  0  0  0  0  0  0  0  0  0  0  0
  148.0820  153.6390  137.8370 P   0  0  0  0  0  0  0  0  0  0  0  0
  149.3550  152.8670  138.0930 O   0  0  0  0  0  0  0  0  0  0  0  0
  146.9480  152.6080  137.1200 O   0  0  0  0  0  0  0  0  0  0  0  0
  147.4740  154.2040  139.3130 O   0  0  0  0  0  0  0  0  0  0  0  0
  148.7590  156.9360  131.8040 H   0  0  0  0  0  0  0  0  0  0  0  0
  146.4925  160.9284  132.5359 H   0  0  0  0  0  0  0  0  0  0  0  0
  143.6868  161.1059  133.0520 H   0  0  0  0  0  0  0  0  0  0  0  0
  141.7210  159.7854  133.9056 H   0  0  0  0  0  0  0  0  0  0  0  0
  140.9233  157.1215  134.0154 H   0  0  0  0  0  0  0  0  0  0  0  0
  142.0480  156.1872  135.0706 H   0  0  0  0  0  0  0  0  0  0  0  0
  139.1030  158.8420  136.8080 H   0  0  0  0  0  0  0  0  0  0  0  0
  144.2962  156.3127  134.4706 H   0  0  0  0  0  0  0  0  0  0  0  0
  146.7107  154.2542  135.8960 H   0  0  0  0  0  0  0  0  0  0  0  0
  148.1705  154.3481  134.8463 H   0  0  0  0  0  0  0  0  0  0  0  0
  1  2  1  0
  2  3  2  0
  2  4  1  0
  4  5  2  0
  5  6  1  0
  6  7  2  0
  7  8  1  0
  8  9  2  0
  9 10  1  0
 10 11  1  0
 11 12  2  0
 11 13  1  1
 11 14  1  0
  9 15  1  0
 15 16  2  0
 16 17  1  0
 17 18  1  0
 18 19  2  0
 18 20  1  0
 20 21  1  0
 21 22  1  0
 22 23  1  0
 23 24  2  0
 23 25  1  0
 23 26  1  0
 17  4  1  0
 16  6  1  0
  1 27  1  0
  5 28  1  0
  7 29  1  0
  8 30  1  0
 10 31  1  0
 10 32  1  0
 14 33  1  0
 15 34  1  0
 21 35  1  0
 21 36  1  0
M  CHG  4   1  -1  13  -1  25  -1  26  -1
M  END
>  <UniqueID>  (87) 
87

>  <SMILES>  (87) 
[NH-]C(=O)c1cc2ccc(C[P@@](=O)([O-])O)cc2n1C(=O)OCOP(=O)([O-])[O-]

>  <Energy>  (87) 
66.83989846633914

>  <Genealogy>  (87) 
[NH-]C(=O)c1cc2ccc(CP(=O)([O-])O)cc2n1C(=O)OCOP(=O)([O-])[O-] (protonated)
[NH-]C(=O)c1cc2ccc(C[P@@](=O)([O-])O)cc2n1C(=O)OCOP(=O)([O-])[O-] (chirality)
[NH-]C(=O)c1cc2ccc(C[P@@](=O)([O-])O)cc2n1C(=O)OCOP(=O)([O-])[O-] (3D coordinates assigned)
[NH-]C(=O)c1cc2ccc(C[P@@](=O)([O-])O)cc2n1C(=O)OCOP(=O)([O-])[O-] (optimized conformer: 66.83989846633914 kcal/mol)

>  <smiles>  (87) 
NC(=O)c1cc2ccc(CP(=O)(O)O)cc2n1C(=O)OCOP(=O)(O)O

>  <score_type>  (87) 
oracle

>  <origin>  (87) 
adg

>  <m_score__min__energy>  (87) 
-7.5199999999999996

>  <m_primary>  (87) 
energy

$$$$
87:0
     RDKit          3D

 30 31  0  0  0  0  0  0  0  0999 V2000
  145.7470  160.5310  132.9880 N   0  0  0  0  0  0  0  0  0  0  0  0
  145.1270  159.4340  133.6620 C   0  0  0  0  0  0  0  0  0  0  0  0
  144.0860  159.6380  134.3430 O   0  0  0  0  0  0  0  0  0  0  0  0
  145.6440  158.0590  133.5230 C   0  0  0  0  0  0  0  0  0  0  0  0
  144.8270  156.9490  133.3360 C   0  0  0  0  0  0  0  0  0  0  0  0
  145.6870  155.8840  133.1920 C   0  0  0  0  0  0  0  0  0  0  0  0
  145.4110  154.5370  132.9850 C   0  0  0  0  0  0  0  0  0  0  0  0
  146.4960  153.6480  132.9040 C   0  0  0  0  0  0  0  0  0  0  0  0
  147.8270  154.1120  133.0600 C   0  0  0  0  0  0  0  0  0  0  0  0
  148.9840  153.1520  132.9370 C   0  0  0  0  0  0  0  0  0  0  0  0
  150.1190  153.8530  132.5780 F   0  0  0  0  0  0  0  0  0  0  0  0
  149.2140  152.5050  134.1390 F   0  0  0  0  0  0  0  0  0  0  0  0
  148.7240  152.1920  131.9740 F   0  0  0  0  0  0  0  0  0  0  0  0
  148.0660  155.4930  133.2490 C   0  0  0  0  0  0  0  0  0  0  0  0
  146.9680  156.3610  133.3030 C   0  0  0  0  0  0  0  0  0  0  0  0
  146.9590  157.6980  133.5100 N   0  0  0  0  0  0  0  0  0  0  0  0
  148.0920  158.5380  133.7900 C   0  0  0  0  0  0  0  0  0  0  0  0
  148.7830  158.3350  134.8260 O   0  0  0  0  0  0  0  0  0  0  0  0
  148.4160  159.5750  132.9050 O   0  0  0  0  0  0  0  0  0  0  0  0
  149.0770  159.4130  131.6800 C   0  0  0  0  0  0  0  0  0  0  0  0
  150.0270  158.5940  131.5530 O   0  0  0  0  0  0  0  0  0  0  0  0
  148.6540  160.2110  130.5260 C   0  0  0  0  0  0  0  0  0  0  0  0
  147.4360  160.4870  130.3620 O   0  0  0  0  0  0  0  0  0  0  0  0
  149.5910  160.6630  129.6070 O   0  0  0  0  0  0  0  0  0  0  0  0
  146.5050  160.3730  132.2880 H   0  0  0  0  0  0  0  0  0  0  0  0
  145.3920  161.5020  133.1310 H   0  0  0  0  0  0  0  0  0  0  0  0
  143.7275  156.9270  133.3089 H   0  0  0  0  0  0  0  0  0  0  0  0
  144.3756  154.1786  132.8877 H   0  0  0  0  0  0  0  0  0  0  0  0
  146.3109  152.5798  132.7175 H   0  0  0  0  0  0  0  0  0  0  0  0
  149.0917  155.8771  133.3513 H   0  0  0  0  0  0  0  0  0  0  0  0
  1  2  1  0
  2  3  2  0
  2  4  1  0
  4  5  2  0
  5  6  1  0
  6  7  2  0
  7  8  1  0
  8  9  2  0
  9 10  1  0
 10 11  1  0
 10 12  1  0
 10 13  1  0
  9 14  1  0
 14 15  2  0
 15 16  1  0
 16 17  1  0
 17 18  2  0
 17 19  1  0
 19 20  1  0
 20 21  2  0
 20 22  1  0
 22 23  2  0
 22 24  1  0
 16  4  1  0
 15  6  1  0
  1 25  1  0
  1 26  1  0
  5 27  1  0
  7 28  1  0
  8 29  1  0
 14 30  1  0
M  CHG  1  24  -1
M  END
>  <UniqueID>  (88) 
88

>  <SMILES>  (88) 
NC(=O)c1cc2ccc(C(F)(F)F)cc2n1C(=O)OC(=O)C(=O)[O-]

>  <Energy>  (88) 
70.02925057927351

>  <Genealogy>  (88) 
NC(=O)c1cc2ccc(C(F)(F)F)cc2n1C(=O)OC(=O)C(=O)[O-] (protonated)
NC(=O)c1cc2ccc(C(F)(F)F)cc2n1C(=O)OC(=O)C(=O)[O-] (3D coordinates assigned)
NC(=O)c1cc2ccc(C(F)(F)F)cc2n1C(=O)OC(=O)C(=O)[O-] (optimized conformer: 70.02925057927351 kcal/mol)

>  <smiles>  (88) 
NC(=O)c1cc2ccc(C(F)(F)F)cc2n1C(=O)OC(=O)C(=O)O

>  <score_type>  (88) 
oracle

>  <origin>  (88) 
adg

>  <m_score__min__energy>  (88) 
-6.1699999999999999

>  <m_primary>  (88) 
energy

$$$$
88:0
     RDKit          3D

 36 37  0  0  0  0  0  0  0  0999 V2000
  141.1010  159.5990  135.0090 C   0  0  0  0  0  0  0  0  0  0  0  0
  141.0720  160.1690  133.7200 O   0  0  0  0  0  0  0  0  0  0  0  0
  140.9120  159.1460  132.7610 C   0  0  0  0  0  0  0  0  0  0  0  0
  141.7650  157.9390  133.1440 C   0  0  0  0  0  0  0  0  0  0  0  0
  143.1420  158.1800  132.8600 O   0  0  0  0  0  0  0  0  0  0  0  0
  144.1820  157.9010  133.7550 C   0  0  0  0  0  0  0  0  0  0  0  0
  144.0100  157.0770  134.6940 O   0  0  0  0  0  0  0  0  0  0  0  0
  145.4580  158.5410  133.5860 N   0  0  0  0  0  0  0  0  0  0  0  0
  145.7090  159.8800  133.5600 C   0  0  0  0  0  0  0  0  0  0  0  0
  144.7400  160.9460  133.8830 C   0  0  0  0  0  0  0  0  0  0  0  0
  143.4090  160.9150  133.3650 N   0  0  0  0  0  0  0  0  0  0  0  0
  145.0740  161.8680  134.6750 O   0  0  0  0  0  0  0  0  0  0  0  0
  147.0390  160.1260  133.2310 C   0  0  0  0  0  0  0  0  0  0  0  0
  147.6080  158.8850  133.0670 C   0  0  0  0  0  0  0  0  0  0  0  0
  148.9090  158.5380  132.7190 C   0  0  0  0  0  0  0  0  0  0  0  0
  149.2120  157.1740  132.5800 C   0  0  0  0  0  0  0  0  0  0  0  0
  148.2150  156.1870  132.7820 C   0  0  0  0  0  0  0  0  0  0  0  0
  148.5390  154.7310  132.6120 C   0  0  0  0  0  0  0  0  0  0  0  0
  149.8890  154.5800  132.3460 F   0  0  0  0  0  0  0  0  0  0  0  0
  148.2230  154.0460  133.7720 F   0  0  0  0  0  0  0  0  0  0  0  0
  146.9030  156.5780  133.1320 C   0  0  0  0  0  0  0  0  0  0  0  0
  146.6330  157.9430  133.2850 C   0  0  0  0  0  0  0  0  0  0  0  0
  141.0604  160.3978  135.7642 H   0  0  0  0  0  0  0  0  0  0  0  0
  140.2356  158.9316  135.1343 H   0  0  0  0  0  0  0  0  0  0  0  0
  142.0296  159.0228  135.1343 H   0  0  0  0  0  0  0  0  0  0  0  0
  139.8542  158.8470  132.7192 H   0  0  0  0  0  0  0  0  0  0  0  0
  141.2314  159.5184  131.7765 H   0  0  0  0  0  0  0  0  0  0  0  0
  141.6480  157.7418  134.2198 H   0  0  0  0  0  0  0  0  0  0  0  0
  141.4310  157.0711  132.5565 H   0  0  0  0  0  0  0  0  0  0  0  0
  142.7490  161.6980  133.5660 H   0  0  0  0  0  0  0  0  0  0  0  0
  143.0530  160.0800  132.8490 H   0  0  0  0  0  0  0  0  0  0  0  0
  147.5301  161.1045  133.1248 H   0  0  0  0  0  0  0  0  0  0  0  0
  149.6772  159.3086  132.5575 H   0  0  0  0  0  0  0  0  0  0  0  0
  150.2340  156.8682  132.3115 H   0  0  0  0  0  0  0  0  0  0  0  0
  147.9526  154.3272  131.7735 H   0  0  0  0  0  0  0  0  0  0  0  0
  146.1126  155.8276  133.2807 H   0  0  0  0  0  0  0  0  0  0  0  0
  1  2  1  0
  2  3  1  0
  3  4  1  0
  4  5  1  0
  5  6  1  0
  6  7  2  0
  6  8  1  0
  8  9  1  0
  9 10  1  0
 10 11  1  0
 10 12  2  0
  9 13  2  0
 13 14  1  0
 14 15  2  0
 15 16  1  0
 16 17  2  0
 17 18  1  0
 18 19  1  0
 18 20  1  0
 17 21  1  0
 21 22  2  0
 22  8  1  0
 22 14  1  0
  1 23  1  0
  1 24  1  0
  1 25  1  0
  3 26  1  0
  3 27  1  0
  4 28  1  0
  4 29  1  0
 11 30  1  0
 11 31  1  0
 13 32  1  0
 15 33  1  0
 16 34  1  0
 18 35  1  0
 21 36  1  0
M  END
>  <UniqueID>  (89) 
89

>  <SMILES>  (89) 
COCCOC(=O)n1c(C(N)=O)cc2ccc(C(F)F)cc21

>  <Energy>  (89) 
71.9147901721489

>  <Genealogy>  (89) 
COCCOC(=O)n1c(C(N)=O)cc2ccc(C(F)F)cc21 (3D coordinates assigned)
COCCOC(=O)n1c(C(N)=O)cc2ccc(C(F)F)cc21 (optimized conformer: 71.9147901721489 kcal/mol)

>  <smiles>  (89) 
COCCOC(=O)n1c(C(N)=O)cc2ccc(C(F)F)cc21

>  <score_type>  (89) 
oracle

>  <origin>  (89) 
adg

>  <m_score__min__energy>  (89) 
-5.5199999999999996

>  <m_primary>  (89) 
energy

$$$$
89:0
     RDKit          3D

 43 44  0  0  0  0  0  0  0  0999 V2000
  146.7340  153.1520  140.2830 C   0  0  0  0  0  0  0  0  0  0  0  0
  147.3780  154.4400  140.0860 N   0  0  0  0  0  0  0  0  0  0  0  0
  148.7220  154.5670  139.6210 C   0  0  0  0  0  0  0  0  0  0  0  0
  149.3740  155.6190  139.8420 O   0  0  0  0  0  0  0  0  0  0  0  0
  149.3710  153.4470  138.8690 C   0  0  0  0  0  0  0  0  0  0  0  0
  149.0870  153.5570  137.4750 O   0  0  0  0  0  0  0  0  0  0  0  0
  147.8010  153.7400  136.9600 C   0  0  0  0  0  0  0  0  0  0  0  0
  146.9140  152.8650  137.1360 O   0  0  0  0  0  0  0  0  0  0  0  0
  147.5270  154.9080  136.2380 O   0  0  0  0  0  0  0  0  0  0  0  0
  146.9820  154.9490  134.9440 C   0  0  0  0  0  0  0  0  0  0  0  0
  147.3800  154.1460  134.0540 O   0  0  0  0  0  0  0  0  0  0  0  0
  145.9810  155.9330  134.6250 N   0  0  0  0  0  0  0  0  0  0  0  0
  144.6400  155.8490  134.8600 C   0  0  0  0  0  0  0  0  0  0  0  0
  143.9600  154.7990  135.6500 C   0  0  0  0  0  0  0  0  0  0  0  0
  144.6090  154.1700  136.7560 N   0  0  0  0  0  0  0  0  0  0  0  0
  142.7690  154.4890  135.3730 O   0  0  0  0  0  0  0  0  0  0  0  0
  143.9730  156.9340  134.3020 C   0  0  0  0  0  0  0  0  0  0  0  0
  144.9530  157.7070  133.7250 C   0  0  0  0  0  0  0  0  0  0  0  0
  144.8480  158.9060  133.0290 C   0  0  0  0  0  0  0  0  0  0  0  0
  146.0230  159.4810  132.5190 C   0  0  0  0  0  0  0  0  0  0  0  0
  147.2850  158.8510  132.7010 C   0  0  0  0  0  0  0  0  0  0  0  0
  148.4910  159.4510  132.1650 N   0  0  0  0  0  0  0  0  0  0  0  0
  149.7400  158.6730  132.0790 C   0  0  0  0  0  0  0  0  0  0  0  0
  148.4870  160.8500  131.7200 C   0  0  0  0  0  0  0  0  0  0  0  0
  147.3410  157.6250  133.4140 C   0  0  0  0  0  0  0  0  0  0  0  0
  146.1560  157.0850  133.9300 C   0  0  0  0  0  0  0  0  0  0  0  0
  146.6344  152.9528  141.3602 H   0  0  0  0  0  0  0  0  0  0  0  0
  145.7368  153.1659  139.8189 H   0  0  0  0  0  0  0  0  0  0  0  0
  147.3434  152.3625  139.8189 H   0  0  0  0  0  0  0  0  0  0  0  0
  150.4595  153.4898  139.0221 H   0  0  0  0  0  0  0  0  0  0  0  0
  148.9757  152.4900  139.2405 H   0  0  0  0  0  0  0  0  0  0  0  0
  144.1320  153.3940  137.2670 H   0  0  0  0  0  0  0  0  0  0  0  0
  145.5360  154.5100  137.1020 H   0  0  0  0  0  0  0  0  0  0  0  0
  142.8911  157.1320  134.3186 H   0  0  0  0  0  0  0  0  0  0  0  0
  143.8715  159.3907  132.8820 H   0  0  0  0  0  0  0  0  0  0  0  0
  145.9666  160.4328  131.9705 H   0  0  0  0  0  0  0  0  0  0  0  0
  150.1021  158.4475  133.0929 H   0  0  0  0  0  0  0  0  0  0  0  0
  149.5502  157.7331  131.5399 H   0  0  0  0  0  0  0  0  0  0  0  0
  150.4999  159.2578  131.5399 H   0  0  0  0  0  0  0  0  0  0  0  0
  148.4851  161.5138  132.5972 H   0  0  0  0  0  0  0  0  0  0  0  0
  149.3846  161.0448  131.1147 H   0  0  0  0  0  0  0  0  0  0  0  0
  147.5883  161.0397  131.1147 H   0  0  0  0  0  0  0  0  0  0  0  0
  148.3004  157.1068  133.5592 H   0  0  0  0  0  0  0  0  0  0  0  0
  1  2  1  0
  2  3  1  0
  3  4  2  0
  3  5  1  0
  5  6  1  0
  6  7  1  0
  7  8  2  0
  7  9  1  0
  9 10  1  0
 10 11  2  0
 10 12  1  0
 12 13  1  0
 13 14  1  0
 14 15  1  0
 14 16  2  0
 13 17  2  0
 17 18  1  0
 18 19  2  0
 19 20  1  0
 20 21  2  0
 21 22  1  0
 22 23  1  0
 22 24  1  0
 21 25  1  0
 25 26  2  0
 26 12  1  0
 26 18  1  0
  1 27  1  0
  1 28  1  0
  1 29  1  0
  5 30  1  0
  5 31  1  0
 15 32  1  0
 15 33  1  0
 17 34  1  0
 19 35  1  0
 20 36  1  0
 23 37  1  0
 23 38  1  0
 23 39  1  0
 24 40  1  0
 24 41  1  0
 24 42  1  0
 25 43  1  0
M  CHG  1   2  -1
M  END
>  <UniqueID>  (90) 
90

>  <SMILES>  (90) 
C[N-]C(=O)COC(=O)OC(=O)n1c(C(N)=O)cc2ccc(N(C)C)cc21

>  <Energy>  (90) 
80.34241975201971

>  <Genealogy>  (90) 
C[N-]C(=O)COC(=O)OC(=O)n1c(C(N)=O)cc2ccc(N(C)C)cc21 (protonated)
C[N-]C(=O)COC(=O)OC(=O)n1c(C(N)=O)cc2ccc(N(C)C)cc21 (3D coordinates assigned)
C[N-]C(=O)COC(=O)OC(=O)n1c(C(N)=O)cc2ccc(N(C)C)cc21 (optimized conformer: 80.34241975201971 kcal/mol)

>  <smiles>  (90) 
CNC(=O)COC(=O)OC(=O)n1c(C(N)=O)cc2ccc(N(C)C)cc21

>  <score_type>  (90) 
oracle

>  <origin>  (90) 
adg

>  <m_score__min__energy>  (90) 
-6.8300000000000001

>  <m_primary>  (90) 
energy

$$$$
90:0
     RDKit          3D

 54 57  0  0  0  0  0  0  0  0999 V2000
  141.0100  155.5660  134.1310 C   0  0  0  0  0  0  0  0  0  0  0  0
  140.1990  156.6990  134.4310 O   0  0  0  0  0  0  0  0  0  0  0  0
  140.0100  157.7960  133.5740 C   0  0  0  0  0  0  0  0  0  0  0  0
  139.1940  157.6940  132.4280 C   0  0  0  0  0  0  0  0  0  0  0  0
  139.0240  158.7870  131.5790 C   0  0  0  0  0  0  0  0  0  0  0  0
  139.6530  159.9990  131.8610 C   0  0  0  0  0  0  0  0  0  0  0  0
  140.4680  160.1180  132.9880 C   0  0  0  0  0  0  0  0  0  0  0  0
  140.6570  159.0260  133.8580 C   0  0  0  0  0  0  0  0  0  0  0  0
  141.5340  159.1890  135.0450 C   0  0  0  0  0  0  0  0  0  0  0  0
  141.0280  159.5420  136.1450 O   0  0  0  0  0  0  0  0  0  0  0  0
  142.9060  158.9330  134.9480 O   0  0  0  0  0  0  0  0  0  0  0  0
  143.6150  158.7720  133.7490 C   0  0  0  0  0  0  0  0  0  0  0  0
  143.0780  158.2380  132.7410 O   0  0  0  0  0  0  0  0  0  0  0  0
  144.9630  159.2530  133.6610 N   0  0  0  0  0  0  0  0  0  0  0  0
  145.3890  160.5470  133.6780 C   0  0  0  0  0  0  0  0  0  0  0  0
  144.5520  161.7260  133.9830 C   0  0  0  0  0  0  0  0  0  0  0  0
  143.1470  161.6820  133.7440 N   0  0  0  0  0  0  0  0  0  0  0  0
  145.0700  162.7880  134.4230 O   0  0  0  0  0  0  0  0  0  0  0  0
  146.7600  160.6120  133.4430 C   0  0  0  0  0  0  0  0  0  0  0  0
  147.1630  159.3050  133.2780 C   0  0  0  0  0  0  0  0  0  0  0  0
  148.4220  158.7850  132.9960 C   0  0  0  0  0  0  0  0  0  0  0  0
  148.5430  157.3940  132.8500 C   0  0  0  0  0  0  0  0  0  0  0  0
  147.4100  156.5500  132.9860 C   0  0  0  0  0  0  0  0  0  0  0  0
  147.5490  155.1220  132.8540 N   0  0  0  0  0  0  0  0  0  0  0  0
  148.8640  154.4900  133.0630 C   0  0  0  0  0  0  0  0  0  0  0  0
  149.0680  153.2400  132.1760 C   0  0  0  0  0  0  0  0  0  0  0  0
  148.4260  151.9480  132.7280 C   0  0  0  0  0  0  0  0  0  0  0  0
  147.0070  151.9030  132.6610 O   0  0  0  0  0  0  0  0  0  0  0  0
  146.3540  152.9610  133.3480 C   0  0  0  0  0  0  0  0  0  0  0  0
  146.3470  154.3100  132.5970 C   0  0  0  0  0  0  0  0  0  0  0  0
  146.1480  157.1160  133.2760 C   0  0  0  0  0  0  0  0  0  0  0  0
  146.0610  158.5050  133.4220 C   0  0  0  0  0  0  0  0  0  0  0  0
  141.3457  155.0970  135.0677 H   0  0  0  0  0  0  0  0  0  0  0  0
  140.4248  154.8405  133.5469 H   0  0  0  0  0  0  0  0  0  0  0  0
  141.8854  155.8860  133.5469 H   0  0  0  0  0  0  0  0  0  0  0  0
  138.6874  156.7441  132.2021 H   0  0  0  0  0  0  0  0  0  0  0  0
  138.3916  158.6928  130.6839 H   0  0  0  0  0  0  0  0  0  0  0  0
  139.5069  160.8621  131.1948 H   0  0  0  0  0  0  0  0  0  0  0  0
  140.9681  161.0747  133.1992 H   0  0  0  0  0  0  0  0  0  0  0  0
  142.6130  160.7910  133.8560 H   0  0  0  0  0  0  0  0  0  0  0  0
  147.3874  161.5144  133.3986 H   0  0  0  0  0  0  0  0  0  0  0  0
  149.2965  159.4439  132.8906 H   0  0  0  0  0  0  0  0  0  0  0  0
  149.5262  156.9536  132.6279 H   0  0  0  0  0  0  0  0  0  0  0  0
  149.6493  155.2229  132.8258 H   0  0  0  0  0  0  0  0  0  0  0  0
  148.9163  154.1668  134.1131 H   0  0  0  0  0  0  0  0  0  0  0  0
  148.6305  153.4454  131.1879 H   0  0  0  0  0  0  0  0  0  0  0  0
  150.1522  153.0579  132.1385 H   0  0  0  0  0  0  0  0  0  0  0  0
  148.8213  151.0982  132.1521 H   0  0  0  0  0  0  0  0  0  0  0  0
  148.6833  151.9109  133.7968 H   0  0  0  0  0  0  0  0  0  0  0  0
  145.3104  152.6620  133.5252 H   0  0  0  0  0  0  0  0  0  0  0  0
  146.9205  153.1251  134.2765 H   0  0  0  0  0  0  0  0  0  0  0  0
  146.2848  154.1090  131.5173 H   0  0  0  0  0  0  0  0  0  0  0  0
  145.4810  154.8827  132.9605 H   0  0  0  0  0  0  0  0  0  0  0  0
  145.2565  156.4807  133.3842 H   0  0  0  0  0  0  0  0  0  0  0  0
  1  2  1  0
  2  3  1  0
  3  4  2  0
  4  5  1  0
  5  6  2  0
  6  7  1  0
  7  8  2  0
  8  9  1  0
  9 10  2  0
  9 11  1  0
 11 12  1  0
 12 13  2  0
 12 14  1  0
 14 15  1  0
 15 16  1  0
 16 17  1  0
 16 18  2  0
 15 19  2  0
 19 20  1  0
 20 21  2  0
 21 22  1  0
 22 23  2  0
 23 24  1  0
 24 25  1  0
 25 26  1  0
 26 27  1  0
 27 28  1  0
 28 29  1  0
 29 30  1  0
 23 31  1  0
 31 32  2  0
  8  3  1  0
 32 14  1  0
 32 20  1  0
 30 24  1  0
  1 33  1  0
  1 34  1  0
  1 35  1  0
  4 36  1  0
  5 37  1  0
  6 38  1  0
  7 39  1  0
 17 40  1  0
 19 41  1  0
 21 42  1  0
 22 43  1  0
 25 44  1  0
 25 45  1  0
 26 46  1  0
 26 47  1  0
 27 48  1  0
 27 49  1  0
 29 50  1  0
 29 51  1  0
 30 52  1  0
 30 53  1  0
 31 54  1  0
M  CHG  1  17  -1
M  END
>  <UniqueID>  (91) 
91

>  <SMILES>  (91) 
COc1ccccc1C(=O)OC(=O)n1c(C([NH-])=O)cc2ccc(N3CCCOCC3)cc21

>  <Energy>  (91) 
116.53157285752077

>  <Genealogy>  (91) 
COc1ccccc1C(=O)OC(=O)n1c(C([NH-])=O)cc2ccc(N3CCCOCC3)cc21 (protonated)
COc1ccccc1C(=O)OC(=O)n1c(C([NH-])=O)cc2ccc(N3CCCOCC3)cc21 (3D coordinates assigned)
COc1ccccc1C(=O)OC(=O)n1c(C([NH-])=O)cc2ccc(N3CCCOCC3)cc21 (nonaromatic ring conformer: 116.53157285752077 kcal/mol)

>  <smiles>  (91) 
COc1ccccc1C(=O)OC(=O)n1c(C(N)=O)cc2ccc(N3CCCOCC3)cc21

>  <score_type>  (91) 
oracle

>  <origin>  (91) 
adg

>  <m_score__min__energy>  (91) 
-6.8700000000000001

>  <m_primary>  (91) 
energy

$$$$
91:0
     RDKit          3D

 44 45  0  0  0  0  0  0  0  0999 V2000
  139.7310  159.2690  131.9670 C   0  0  0  0  0  0  0  0  0  0  0  0
  140.1120  158.0220  132.5340 O   0  0  0  0  0  0  0  0  0  0  0  0
  139.4390  157.4500  133.6180 C   0  0  0  0  0  0  0  0  0  0  0  0
  138.9440  158.1750  134.5230 O   0  0  0  0  0  0  0  0  0  0  0  0
  139.3020  156.0310  133.7070 N   0  0  0  0  0  0  0  0  0  0  0  0
  140.1790  155.1190  132.9860 C   0  0  0  0  0  0  0  0  0  0  0  0
  141.4710  154.9190  133.7320 C   0  0  0  0  0  0  0  0  0  0  0  0
  141.4540  154.3020  134.8350 O   0  0  0  0  0  0  0  0  0  0  0  0
  142.7330  155.3660  133.1830 N   0  0  0  0  0  0  0  0  0  0  0  0
  143.9060  154.4830  133.1940 C   0  0  0  0  0  0  0  0  0  0  0  0
  142.8740  156.7450  132.7030 C   0  0  0  0  0  0  0  0  0  0  0  0
  142.9880  157.6780  133.8690 C   0  0  0  0  0  0  0  0  0  0  0  0
  142.3630  157.4340  134.9370 O   0  0  0  0  0  0  0  0  0  0  0  0
  143.8900  158.7880  133.8100 N   0  0  0  0  0  0  0  0  0  0  0  0
  143.5850  160.1150  133.8230 C   0  0  0  0  0  0  0  0  0  0  0  0
  142.2430  160.6890  134.0590 C   0  0  0  0  0  0  0  0  0  0  0  0
  141.2190  159.9250  134.6910 N   0  0  0  0  0  0  0  0  0  0  0  0
  142.0060  161.8800  133.7240 O   0  0  0  0  0  0  0  0  0  0  0  0
  144.7310  160.8780  133.6020 C   0  0  0  0  0  0  0  0  0  0  0  0
  145.7540  159.9650  133.4500 C   0  0  0  0  0  0  0  0  0  0  0  0
  147.1030  160.1630  133.1780 C   0  0  0  0  0  0  0  0  0  0  0  0
  147.9200  159.0280  133.0330 C   0  0  0  0  0  0  0  0  0  0  0  0
  147.3770  157.7210  133.1530 C   0  0  0  0  0  0  0  0  0  0  0  0
  148.2390  156.4930  132.9980 C   0  0  0  0  0  0  0  0  0  0  0  0
  148.4630  155.9280  134.2390 F   0  0  0  0  0  0  0  0  0  0  0  0
  147.5920  155.5720  132.1940 F   0  0  0  0  0  0  0  0  0  0  0  0
  149.4620  156.7960  132.4240 F   0  0  0  0  0  0  0  0  0  0  0  0
  145.9990  157.5630  133.4310 C   0  0  0  0  0  0  0  0  0  0  0  0
  145.2170  158.7120  133.5800 C   0  0  0  0  0  0  0  0  0  0  0  0
  139.5119  159.9861  132.7718 H   0  0  0  0  0  0  0  0  0  0  0  0
  140.5521  159.6553  131.3452 H   0  0  0  0  0  0  0  0  0  0  0  0
  138.8342  159.1304  131.3452 H   0  0  0  0  0  0  0  0  0  0  0  0
  139.6745  154.1482  132.8716 H   0  0  0  0  0  0  0  0  0  0  0  0
  140.4042  155.5517  132.0000 H   0  0  0  0  0  0  0  0  0  0  0  0
  144.1927  154.2672  134.2338 H   0  0  0  0  0  0  0  0  0  0  0  0
  143.6619  153.5426  132.6782 H   0  0  0  0  0  0  0  0  0  0  0  0
  144.7422  154.9777  132.6782 H   0  0  0  0  0  0  0  0  0  0  0  0
  143.7780  156.8248  132.0815 H   0  0  0  0  0  0  0  0  0  0  0  0
  141.9898  157.0146  132.1068 H   0  0  0  0  0  0  0  0  0  0  0  0
  140.9550  158.9810  134.3330 H   0  0  0  0  0  0  0  0  0  0  0  0
  144.8039  161.9747  133.5582 H   0  0  0  0  0  0  0  0  0  0  0  0
  147.5184  161.1767  133.0792 H   0  0  0  0  0  0  0  0  0  0  0  0
  148.9926  159.1537  132.8241 H   0  0  0  0  0  0  0  0  0  0  0  0
  145.5542  156.5616  133.5274 H   0  0  0  0  0  0  0  0  0  0  0  0
  1  2  1  0
  2  3  1  0
  3  4  2  0
  3  5  1  0
  5  6  1  0
  6  7  1  0
  7  8  2  0
  7  9  1  0
  9 10  1  0
  9 11  1  0
 11 12  1  0
 12 13  2  0
 12 14  1  0
 14 15  1  0
 15 16  1  0
 16 17  1  0
 16 18  2  0
 15 19  2  0
 19 20  1  0
 20 21  2  0
 21 22  1  0
 22 23  2  0
 23 24  1  0
 24 25  1  0
 24 26  1  0
 24 27  1  0
 23 28  1  0
 28 29  2  0
 29 14  1  0
 29 20  1  0
  1 30  1  0
  1 31  1  0
  1 32  1  0
  6 33  1  0
  6 34  1  0
 10 35  1  0
 10 36  1  0
 10 37  1  0
 11 38  1  0
 11 39  1  0
 17 40  1  0
 19 41  1  0
 21 42  1  0
 22 43  1  0
 28 44  1  0
M  CHG  2   5  -1  17  -1
M  END
>  <UniqueID>  (92) 
92

>  <SMILES>  (92) 
COC(=O)[N-]CC(=O)N(C)CC(=O)n1c(C([NH-])=O)cc2ccc(C(F)(F)F)cc21

>  <Energy>  (92) 
75.06864676643534

>  <Genealogy>  (92) 
COC(=O)[N-]CC(=O)N(C)CC(=O)n1c(C([NH-])=O)cc2ccc(C(F)(F)F)cc21 (protonated)
COC(=O)[N-]CC(=O)N(C)CC(=O)n1c(C([NH-])=O)cc2ccc(C(F)(F)F)cc21 (3D coordinates assigned)
COC(=O)[N-]CC(=O)N(C)CC(=O)n1c(C([NH-])=O)cc2ccc(C(F)(F)F)cc21 (optimized conformer: 75.06864676643534 kcal/mol)

>  <smiles>  (92) 
COC(=O)NCC(=O)N(C)CC(=O)n1c(C(N)=O)cc2ccc(C(F)(F)F)cc21

>  <score_type>  (92) 
oracle

>  <origin>  (92) 
adg

>  <m_score__min__energy>  (92) 
-6.1399999999999997

>  <m_primary>  (92) 
energy

$$$$
92:0
     RDKit          3D

 30 31  0  0  0  0  0  0  0  0999 V2000
  145.8530  153.3650  134.1710 N   0  0  0  0  0  0  0  0  0  0  0  0
  146.5840  154.3570  134.8880 C   0  0  0  0  0  0  0  0  0  0  0  0
  146.8760  154.1560  136.0960 O   0  0  0  0  0  0  0  0  0  0  0  0
  147.0460  155.5910  134.2190 C   0  0  0  0  0  0  0  0  0  0  0  0
  146.5590  156.8600  134.5270 C   0  0  0  0  0  0  0  0  0  0  0  0
  147.3050  157.7320  133.7660 C   0  0  0  0  0  0  0  0  0  0  0  0
  147.2460  159.1200  133.6760 C   0  0  0  0  0  0  0  0  0  0  0  0
  148.1300  159.7600  132.7910 C   0  0  0  0  0  0  0  0  0  0  0  0
  149.0410  159.0060  132.0080 C   0  0  0  0  0  0  0  0  0  0  0  0
  149.9990  159.7040  131.0790 C   0  0  0  0  0  0  0  0  0  0  0  0
  149.2560  160.4840  129.9910 C   0  0  0  0  0  0  0  0  0  0  0  0
  149.0820  161.8230  130.3690 O   0  0  0  0  0  0  0  0  0  0  0  0
  149.0770  157.6000  132.1330 C   0  0  0  0  0  0  0  0  0  0  0  0
  148.1960  156.9910  133.0330 C   0  0  0  0  0  0  0  0  0  0  0  0
  148.0460  155.6750  133.2960 N   0  0  0  0  0  0  0  0  0  0  0  0
  148.7530  154.6000  132.6580 C   0  0  0  0  0  0  0  0  0  0  0  0
  148.0550  153.4290  132.2320 N   0  0  0  0  0  0  0  0  0  0  0  0
  149.9890  154.7010  132.4400 O   0  0  0  0  0  0  0  0  0  0  0  0
  146.2630  152.4210  133.9920 H   0  0  0  0  0  0  0  0  0  0  0  0
  145.7504  157.1116  135.2290 H   0  0  0  0  0  0  0  0  0  0  0  0
  146.5298  159.6976  134.2788 H   0  0  0  0  0  0  0  0  0  0  0  0
  148.1154  160.8565  132.7046 H   0  0  0  0  0  0  0  0  0  0  0  0
  150.6168  160.4032  131.6616 H   0  0  0  0  0  0  0  0  0  0  0  0
  150.6249  158.9419  130.5916 H   0  0  0  0  0  0  0  0  0  0  0  0
  149.8379  160.4453  129.0583 H   0  0  0  0  0  0  0  0  0  0  0  0
  148.2660  160.0277  129.8438 H   0  0  0  0  0  0  0  0  0  0  0  0
  148.2320  162.1300  129.9610 H   0  0  0  0  0  0  0  0  0  0  0  0
  149.7800  156.9988  131.5378 H   0  0  0  0  0  0  0  0  0  0  0  0
  147.0190  153.3610  132.3360 H   0  0  0  0  0  0  0  0  0  0  0  0
  148.5720  152.6430  131.7800 H   0  0  0  0  0  0  0  0  0  0  0  0
  1  2  1  0
  2  3  2  0
  2  4  1  0
  4  5  2  0
  5  6  1  0
  6  7  2  0
  7  8  1  0
  8  9  2  0
  9 10  1  0
 10 11  1  0
 11 12  1  0
  9 13  1  0
 13 14  2  0
 14 15  1  0
 15 16  1  0
 16 17  1  0
 16 18  2  0
 15  4  1  0
 14  6  1  0
  1 19  1  0
  5 20  1  0
  7 21  1  0
  8 22  1  0
 10 23  1  0
 10 24  1  0
 11 25  1  0
 11 26  1  0
 12 27  1  0
 13 28  1  0
 17 29  1  0
 17 30  1  0
M  CHG  1   1  -1
M  END
>  <UniqueID>  (93) 
93

>  <SMILES>  (93) 
[NH-]C(=O)c1cc2ccc(CCO)cc2n1C(N)=O

>  <Energy>  (93) 
66.19049642383855

>  <Genealogy>  (93) 
[NH-]C(=O)c1cc2ccc(CCO)cc2n1C(N)=O (protonated)
[NH-]C(=O)c1cc2ccc(CCO)cc2n1C(N)=O (3D coordinates assigned)
[NH-]C(=O)c1cc2ccc(CCO)cc2n1C(N)=O (optimized conformer: 66.19049642383855 kcal/mol)

>  <smiles>  (93) 
NC(=O)c1cc2ccc(CCO)cc2n1C(N)=O

>  <score_type>  (93) 
oracle

>  <origin>  (93) 
adg

>  <m_score__min__energy>  (93) 
-6.2199999999999998

>  <m_primary>  (93) 
energy

$$$$
93:0
     RDKit          3D

 45 47  0  0  0  0  0  0  0  0999 V2000
  145.6450  153.9230  133.2170 C   0  0  0  0  0  0  0  0  0  0  0  0
  147.1170  153.7830  132.9830 C   0  0  0  0  0  0  0  0  0  0  0  0
  147.6810  152.5540  132.8250 N   0  0  0  0  0  0  0  0  0  0  0  0
  149.0090  152.6160  132.5900 C   0  0  0  0  0  0  0  0  0  0  0  0
  149.5400  154.2090  132.5670 S   0  0  0  0  0  0  0  0  0  0  0  0
  148.0180  154.8540  132.8890 C   0  0  0  0  0  0  0  0  0  0  0  0
  147.7350  156.3000  133.0180 C   0  0  0  0  0  0  0  0  0  0  0  0
  148.8030  157.2320  132.9830 C   0  0  0  0  0  0  0  0  0  0  0  0
  148.5590  158.6080  133.1230 C   0  0  0  0  0  0  0  0  0  0  0  0
  147.2420  159.0240  133.2950 C   0  0  0  0  0  0  0  0  0  0  0  0
  146.7300  160.2880  133.4790 C   0  0  0  0  0  0  0  0  0  0  0  0
  145.3540  160.1130  133.6120 C   0  0  0  0  0  0  0  0  0  0  0  0
  144.4030  161.2370  133.7400 C   0  0  0  0  0  0  0  0  0  0  0  0
  143.0240  161.0720  133.4250 N   0  0  0  0  0  0  0  0  0  0  0  0
  144.8250  162.3730  134.0850 O   0  0  0  0  0  0  0  0  0  0  0  0
  145.0300  158.7910  133.5240 N   0  0  0  0  0  0  0  0  0  0  0  0
  143.7360  158.1850  133.6720 C   0  0  0  0  0  0  0  0  0  0  0  0
  143.0080  157.9950  132.6600 O   0  0  0  0  0  0  0  0  0  0  0  0
  143.2750  157.8370  134.9470 O   0  0  0  0  0  0  0  0  0  0  0  0
  142.1280  158.4300  135.5450 C   0  0  0  0  0  0  0  0  0  0  0  0
  141.3870  159.1640  134.5740 O   0  0  0  0  0  0  0  0  0  0  0  0
  140.1580  158.7270  134.0660 C   0  0  0  0  0  0  0  0  0  0  0  0
  139.3610  158.0730  134.7910 O   0  0  0  0  0  0  0  0  0  0  0  0
  139.7960  159.0160  132.6340 C   0  0  2  0  0  0  0  0  0  0  0  0
  139.1050  157.8040  132.0070 C   0  0  0  0  0  0  0  0  0  0  0  0
  140.9810  159.3790  131.8540 N   0  0  0  0  0  0  0  0  0  0  0  0
  146.1970  158.1390  133.3260 C   0  0  0  0  0  0  0  0  0  0  0  0
  146.4140  156.7610  133.2160 C   0  0  0  0  0  0  0  0  0  0  0  0
  145.4458  153.9419  134.2987 H   0  0  0  0  0  0  0  0  0  0  0  0
  145.2888  154.8591  132.7621 H   0  0  0  0  0  0  0  0  0  0  0  0
  145.1187  153.0709  132.7621 H   0  0  0  0  0  0  0  0  0  0  0  0
  149.6564  151.7404  132.4344 H   0  0  0  0  0  0  0  0  0  0  0  0
  149.8337  156.8735  132.8447 H   0  0  0  0  0  0  0  0  0  0  0  0
  149.3840  159.3351  133.0975 H   0  0  0  0  0  0  0  0  0  0  0  0
  147.2883  161.2352  133.5137 H   0  0  0  0  0  0  0  0  0  0  0  0
  142.6500  160.1450  133.1180 H   0  0  0  0  0  0  0  0  0  0  0  0
  141.4897  157.6399  135.9673 H   0  0  0  0  0  0  0  0  0  0  0  0
  142.4540  159.1167  136.3401 H   0  0  0  0  0  0  0  0  0  0  0  0
  139.1027  159.8699  132.6237 H   0  0  0  0  0  0  0  0  0  0  0  0
  138.7288  157.1441  132.8027 H   0  0  0  0  0  0  0  0  0  0  0  0
  138.2644  158.1430  131.3837 H   0  0  0  0  0  0  0  0  0  0  0  0
  139.8249  157.2533  131.3837 H   0  0  0  0  0  0  0  0  0  0  0  0
  141.7200  159.7250  132.5100 H   0  0  0  0  0  0  0  0  0  0  0  0
  141.3610  158.5310  131.3740 H   0  0  0  0  0  0  0  0  0  0  0  0
  145.5751  156.0526  133.2822 H   0  0  0  0  0  0  0  0  0  0  0  0
  1  2  1  0
  2  3  1  0
  3  4  2  0
  4  5  1  0
  5  6  1  0
  6  7  1  0
  7  8  2  0
  8  9  1  0
  9 10  2  0
 10 11  1  0
 11 12  2  0
 12 13  1  0
 13 14  1  0
 13 15  2  0
 12 16  1  0
 16 17  1  0
 17 18  2  0
 17 19  1  0
 19 20  1  0
 20 21  1  0
 21 22  1  0
 22 23  2  0
 22 24  1  0
 24 25  1  0
 24 26  1  0
 16 27  1  0
 27 28  2  0
  6  2  2  0
 28  7  1  0
 27 10  1  0
  1 29  1  0
  1 30  1  0
  1 31  1  0
  4 32  1  0
  8 33  1  0
  9 34  1  0
 11 35  1  0
 14 36  1  0
 20 37  1  0
 20 38  1  0
 24 39  1  1
 25 40  1  0
 25 41  1  0
 25 42  1  0
 26 43  1  0
 26 44  1  0
 28 45  1  0
M  CHG  1  14  -1
M  END
>  <UniqueID>  (94) 
94

>  <SMILES>  (94) 
Cc1ncsc1-c1ccc2cc(C([NH-])=O)n(C(=O)OCOC(=O)[C@H](C)N)c2c1

>  <Energy>  (94) 
111.50964279780905

>  <Genealogy>  (94) 
Cc1ncsc1-c1ccc2cc(C([NH-])=O)n(C(=O)OCOC(=O)C(C)N)c2c1 (protonated)
Cc1ncsc1-c1ccc2cc(C([NH-])=O)n(C(=O)OCOC(=O)[C@H](C)N)c2c1 (chirality)
Cc1ncsc1-c1ccc2cc(C([NH-])=O)n(C(=O)OCOC(=O)[C@H](C)N)c2c1 (3D coordinates assigned)
Cc1ncsc1-c1ccc2cc(C([NH-])=O)n(C(=O)OCOC(=O)[C@H](C)N)c2c1 (optimized conformer: 111.50964279780905 kcal/mol)

>  <smiles>  (94) 
Cc1ncsc1-c1ccc2cc(C(N)=O)n(C(=O)OCOC(=O)C(C)N)c2c1

>  <score_type>  (94) 
oracle

>  <origin>  (94) 
adg

>  <m_score__min__energy>  (94) 
-7.1799999999999997

>  <m_primary>  (94) 
energy

$$$$
94:0
     RDKit          3D

 50 52  0  0  0  0  0  0  0  0999 V2000
  148.9780  153.7260  132.4580 C   0  0  0  0  0  0  0  0  0  0  0  0
  148.6320  154.8710  132.6020 C   0  0  0  0  0  0  0  0  0  0  0  0
  148.2180  156.2410  132.7730 C   0  0  0  0  0  0  0  0  0  0  0  0
  149.1660  157.2840  132.6540 C   0  0  0  0  0  0  0  0  0  0  0  0
  148.7710  158.6260  132.7970 C   0  0  0  0  0  0  0  0  0  0  0  0
  147.4280  158.8840  133.0640 C   0  0  0  0  0  0  0  0  0  0  0  0
  146.7760  160.0850  133.2310 C   0  0  0  0  0  0  0  0  0  0  0  0
  145.4430  159.7510  133.4780 C   0  0  0  0  0  0  0  0  0  0  0  0
  144.4040  160.7500  133.8090 C   0  0  0  0  0  0  0  0  0  0  0  0
  143.0380  160.3500  133.8870 N   0  0  0  0  0  0  0  0  0  0  0  0
  144.7020  161.9600  133.9930 O   0  0  0  0  0  0  0  0  0  0  0  0
  145.2760  158.3970  133.4540 N   0  0  0  0  0  0  0  0  0  0  0  0
  144.0610  157.6480  133.6280 C   0  0  0  0  0  0  0  0  0  0  0  0
  143.2120  157.5970  132.6960 O   0  0  0  0  0  0  0  0  0  0  0  0
  143.8370  156.9620  134.8250 O   0  0  0  0  0  0  0  0  0  0  0  0
  142.5870  157.0010  135.5110 C   0  0  0  0  0  0  0  0  0  0  0  0
  142.2590  158.3460  135.8440 O   0  0  0  0  0  0  0  0  0  0  0  0
  140.9440  158.8240  135.8670 C   0  0  0  0  0  0  0  0  0  0  0  0
  140.2620  158.7860  136.9290 O   0  0  0  0  0  0  0  0  0  0  0  0
  140.3340  159.3640  134.6100 C   0  0  0  0  0  0  0  0  0  0  0  0
  140.7300  158.5450  133.4400 N   0  0  0  0  0  0  0  0  0  0  0  0
  140.9970  159.3620  132.2290 C   0  0  0  0  0  0  0  0  0  0  0  0
  139.7850  159.4670  131.2810 C   0  0  0  0  0  0  0  0  0  0  0  0
  138.5350  159.3190  132.0430 N   0  0  0  0  0  0  0  0  0  0  0  0
  137.3750  159.6200  131.1920 C   0  0  0  0  0  0  0  0  0  0  0  0
  138.4270  157.9540  132.6000 C   0  0  0  0  0  0  0  0  0  0  0  0
  139.7780  157.4460  133.1600 C   0  0  0  0  0  0  0  0  0  0  0  0
  146.5020  157.8800  133.2020 C   0  0  0  0  0  0  0  0  0  0  0  0
  146.8650  156.5370  133.0460 C   0  0  0  0  0  0  0  0  0  0  0  0
  149.2939  152.6806  132.3265 H   0  0  0  0  0  0  0  0  0  0  0  0
  150.2195  157.0437  132.4482 H   0  0  0  0  0  0  0  0  0  0  0  0
  149.4986  159.4454  132.7012 H   0  0  0  0  0  0  0  0  0  0  0  0
  147.2125  161.0934  133.1806 H   0  0  0  0  0  0  0  0  0  0  0  0
  142.7750  159.3390  133.9500 H   0  0  0  0  0  0  0  0  0  0  0  0
  141.8021  156.5838  134.8630 H   0  0  0  0  0  0  0  0  0  0  0  0
  142.6616  156.4072  136.4339 H   0  0  0  0  0  0  0  0  0  0  0  0
  139.2383  159.3502  134.7058 H   0  0  0  0  0  0  0  0  0  0  0  0
  140.6916  160.3931  134.4579 H   0  0  0  0  0  0  0  0  0  0  0  0
  141.2790  160.3763  132.5480 H   0  0  0  0  0  0  0  0  0  0  0  0
  141.8028  158.8622  131.6715 H   0  0  0  0  0  0  0  0  0  0  0  0
  139.7949  160.4486  130.7847 H   0  0  0  0  0  0  0  0  0  0  0  0
  139.8455  158.6673  130.5281 H   0  0  0  0  0  0  0  0  0  0  0  0
  136.5044  159.8459  131.8253 H   0  0  0  0  0  0  0  0  0  0  0  0
  137.6018  160.4890  130.5569 H   0  0  0  0  0  0  0  0  0  0  0  0
  137.1506  158.7503  130.5569 H   0  0  0  0  0  0  0  0  0  0  0  0
  137.6857  157.9600  133.4127 H   0  0  0  0  0  0  0  0  0  0  0  0
  138.1216  157.2791  131.7869 H   0  0  0  0  0  0  0  0  0  0  0  0
  139.5879  156.8984  134.0949 H   0  0  0  0  0  0  0  0  0  0  0  0
  140.2327  156.7994  132.3951 H   0  0  0  0  0  0  0  0  0  0  0  0
  146.1172  155.7351  133.1337 H   0  0  0  0  0  0  0  0  0  0  0  0
  1  2  3  0
  2  3  1  0
  3  4  2  0
  4  5  1  0
  5  6  2  0
  6  7  1  0
  7  8  2  0
  8  9  1  0
  9 10  1  0
  9 11  2  0
  8 12  1  0
 12 13  1  0
 13 14  2  0
 13 15  1  0
 15 16  1  0
 16 17  1  0
 17 18  1  0
 18 19  2  0
 18 20  1  0
 20 21  1  0
 21 22  1  0
 22 23  1  0
 23 24  1  0
 24 25  1  0
 24 26  1  0
 26 27  1  0
 12 28  1  0
 28 29  2  0
 29  3  1  0
 28  6  1  0
 27 21  1  0
  1 30  1  0
  4 31  1  0
  5 32  1  0
  7 33  1  0
 10 34  1  0
 16 35  1  0
 16 36  1  0
 20 37  1  0
 20 38  1  0
 22 39  1  0
 22 40  1  0
 23 41  1  0
 23 42  1  0
 25 43  1  0
 25 44  1  0
 25 45  1  0
 26 46  1  0
 26 47  1  0
 27 48  1  0
 27 49  1  0
 29 50  1  0
M  CHG  1  10  -1
M  END
>  <UniqueID>  (95) 
95

>  <SMILES>  (95) 
C#Cc1ccc2cc(C([NH-])=O)n(C(=O)OCOC(=O)CN3CCN(C)CC3)c2c1

>  <Energy>  (95) 
95.1382410669361

>  <Genealogy>  (95) 
C#Cc1ccc2cc(C([NH-])=O)n(C(=O)OCOC(=O)CN3CCN(C)CC3)c2c1 (protonated)
C#Cc1ccc2cc(C([NH-])=O)n(C(=O)OCOC(=O)CN3CCN(C)CC3)c2c1 (3D coordinates assigned)
C#Cc1ccc2cc(C([NH-])=O)n(C(=O)OCOC(=O)CN3CCN(C)CC3)c2c1 (nonaromatic ring conformer: 95.1382410669361 kcal/mol)

>  <smiles>  (95) 
C#Cc1ccc2cc(C(N)=O)n(C(=O)OCOC(=O)CN3CCN(C)CC3)c2c1

>  <score_type>  (95) 
oracle

>  <origin>  (95) 
adg

>  <m_score__min__energy>  (95) 
-7.8600000000000003

>  <m_primary>  (95) 
energy

$$$$
95:0
     RDKit          3D

 38 39  0  0  0  0  0  0  0  0999 V2000
  141.2650  154.2160  133.7650 C   0  0  0  0  0  0  0  0  0  0  0  0
  140.9390  155.6170  133.4770 N   0  0  0  0  0  0  0  0  0  0  0  0
  139.6630  155.9210  132.8790 C   0  0  0  0  0  0  0  0  0  0  0  0
  138.7050  155.1070  132.9750 O   0  0  0  0  0  0  0  0  0  0  0  0
  139.4840  157.1500  132.1620 N   0  0  0  0  0  0  0  0  0  0  0  0
  138.6800  158.2620  132.6600 C   0  0  0  0  0  0  0  0  0  0  0  0
  138.6780  159.3930  131.6770 C   0  0  0  0  0  0  0  0  0  0  0  0
  137.6170  160.0370  131.4520 O   0  0  0  0  0  0  0  0  0  0  0  0
  139.8330  159.7040  130.9710 O   0  0  0  0  0  0  0  0  0  0  0  0
  141.8980  156.6580  133.7610 C   0  0  0  0  0  0  0  0  0  0  0  0
  142.8350  156.8910  132.9520 O   0  0  0  0  0  0  0  0  0  0  0  0
  141.7950  157.4470  134.9580 N   0  0  0  0  0  0  0  0  0  0  0  0
  141.7940  158.8070  135.0630 C   0  0  0  0  0  0  0  0  0  0  0  0
  142.0130  159.7490  133.9400 C   0  0  0  0  0  0  0  0  0  0  0  0
  141.6290  159.4060  132.6070 N   0  0  0  0  0  0  0  0  0  0  0  0
  142.5380  160.8740  134.1500 O   0  0  0  0  0  0  0  0  0  0  0  0
  141.6370  159.1850  136.3990 C   0  0  0  0  0  0  0  0  0  0  0  0
  141.5360  158.0090  137.1050 C   0  0  0  0  0  0  0  0  0  0  0  0
  141.3820  157.7930  138.4730 C   0  0  0  0  0  0  0  0  0  0  0  0
  141.3370  156.4670  138.9290 C   0  0  0  0  0  0  0  0  0  0  0  0
  141.4520  155.3850  138.0210 C   0  0  0  0  0  0  0  0  0  0  0  0
  141.4380  153.9730  138.5340 C   0  0  0  0  0  0  0  0  0  0  0  0
  141.5860  153.0910  137.4770 F   0  0  0  0  0  0  0  0  0  0  0  0
  140.2380  153.7200  139.1750 F   0  0  0  0  0  0  0  0  0  0  0  0
  141.5900  155.6420  136.6370 C   0  0  0  0  0  0  0  0  0  0  0  0
  141.6400  156.9740  136.2140 C   0  0  0  0  0  0  0  0  0  0  0  0
  141.3003  154.0641  134.8539 H   0  0  0  0  0  0  0  0  0  0  0  0
  140.4948  153.5631  133.3285 H   0  0  0  0  0  0  0  0  0  0  0  0
  142.2443  153.9702  133.3285 H   0  0  0  0  0  0  0  0  0  0  0  0
  137.6470  157.9188  132.8183 H   0  0  0  0  0  0  0  0  0  0  0  0
  139.1126  158.6162  133.6073 H   0  0  0  0  0  0  0  0  0  0  0  0
  141.2360  158.4690  132.3680 H   0  0  0  0  0  0  0  0  0  0  0  0
  141.7790  160.0890  131.8320 H   0  0  0  0  0  0  0  0  0  0  0  0
  141.6016  160.2081  136.8015 H   0  0  0  0  0  0  0  0  0  0  0  0
  141.2983  158.6365  139.1740 H   0  0  0  0  0  0  0  0  0  0  0  0
  141.2111  156.2650  140.0029 H   0  0  0  0  0  0  0  0  0  0  0  0
  142.2682  153.8404  139.2433 H   0  0  0  0  0  0  0  0  0  0  0  0
  141.6562  154.8165  135.9130 H   0  0  0  0  0  0  0  0  0  0  0  0
  1  2  1  0
  2  3  1  0
  3  4  2  0
  3  5  1  0
  5  6  1  0
  6  7  1  0
  7  8  2  0
  7  9  1  0
  2 10  1  0
 10 11  2  0
 10 12  1  0
 12 13  1  0
 13 14  1  0
 14 15  1  0
 14 16  2  0
 13 17  2  0
 17 18  1  0
 18 19  2  0
 19 20  1  0
 20 21  2  0
 21 22  1  0
 22 23  1  0
 22 24  1  0
 21 25  1  0
 25 26  2  0
 26 12  1  0
 26 18  1  0
  1 27  1  0
  1 28  1  0
  1 29  1  0
  6 30  1  0
  6 31  1  0
 15 32  1  0
 15 33  1  0
 17 34  1  0
 19 35  1  0
 20 36  1  0
 22 37  1  0
 25 38  1  0
M  CHG  2   5  -1   9  -1
M  END
>  <UniqueID>  (96) 
96

>  <SMILES>  (96) 
CN(C(=O)[N-]CC(=O)[O-])C(=O)n1c(C(N)=O)cc2ccc(C(F)F)cc21

>  <Energy>  (96) 
75.9697089946778

>  <Genealogy>  (96) 
CN(C(=O)[N-]CC(=O)[O-])C(=O)n1c(C(N)=O)cc2ccc(C(F)F)cc21 (protonated)
CN(C(=O)[N-]CC(=O)[O-])C(=O)n1c(C(N)=O)cc2ccc(C(F)F)cc21 (3D coordinates assigned)
CN(C(=O)[N-]CC(=O)[O-])C(=O)n1c(C(N)=O)cc2ccc(C(F)F)cc21 (optimized conformer: 75.9697089946778 kcal/mol)

>  <smiles>  (96) 
CN(C(=O)NCC(=O)O)C(=O)n1c(C(N)=O)cc2ccc(C(F)F)cc21

>  <score_type>  (96) 
oracle

>  <origin>  (96) 
adg

>  <m_score__min__energy>  (96) 
-6.4000000000000004

>  <m_primary>  (96) 
energy

$$$$
96:0
     RDKit          3D

 38 40  0  0  0  0  0  0  0  0999 V2000
  143.9270  163.3710  133.3500 N   0  0  0  0  0  0  0  0  0  0  0  0
  144.7800  162.5630  134.1570 C   0  0  0  0  0  0  0  0  0  0  0  0
  145.4650  163.1060  135.0640 O   0  0  0  0  0  0  0  0  0  0  0  0
  144.8940  161.1070  133.9250 C   0  0  0  0  0  0  0  0  0  0  0  0
  146.1060  160.4510  133.7190 C   0  0  0  0  0  0  0  0  0  0  0  0
  145.7740  159.1330  133.4960 C   0  0  0  0  0  0  0  0  0  0  0  0
  146.5880  158.0330  133.2430 C   0  0  0  0  0  0  0  0  0  0  0  0
  145.9710  156.7810  133.0770 C   0  0  0  0  0  0  0  0  0  0  0  0
  144.5630  156.6450  133.1920 C   0  0  0  0  0  0  0  0  0  0  0  0
  143.9090  155.3040  132.9750 C   0  0  0  0  0  0  0  0  0  0  0  0
  144.2000  154.8190  131.7110 F   0  0  0  0  0  0  0  0  0  0  0  0
  144.3770  154.4110  133.9190 F   0  0  0  0  0  0  0  0  0  0  0  0
  142.5330  155.4060  133.0920 F   0  0  0  0  0  0  0  0  0  0  0  0
  143.7700  157.7910  133.4280 C   0  0  0  0  0  0  0  0  0  0  0  0
  144.4110  159.0270  133.5710 C   0  0  0  0  0  0  0  0  0  0  0  0
  143.8560  160.2300  133.8290 N   0  0  0  0  0  0  0  0  0  0  0  0
  142.4610  160.4880  134.0520 C   0  0  0  0  0  0  0  0  0  0  0  0
  141.9210  161.4750  133.4860 O   0  0  0  0  0  0  0  0  0  0  0  0
  141.6710  159.5930  134.9260 C   0  0  0  0  0  0  0  0  0  0  0  0
  142.0970  159.3460  136.0840 O   0  0  0  0  0  0  0  0  0  0  0  0
  140.4320  158.9980  134.5140 N   0  0  0  0  0  0  0  0  0  0  0  0
  140.1730  158.3740  133.2180 C   0  0  0  0  0  0  0  0  0  0  0  0
  140.2580  159.3420  132.0780 C   0  0  0  0  0  0  0  0  0  0  0  0
  138.8190  159.3280  131.7600 N   0  0  0  0  0  0  0  0  0  0  0  0
  137.9440  159.9410  130.8190 C   0  0  0  0  0  0  0  0  0  0  0  0
  138.4000  160.7450  129.9640 O   0  0  0  0  0  0  0  0  0  0  0  0
  136.5860  159.6560  130.8450 O   0  0  0  0  0  0  0  0  0  0  0  0
  138.7160  158.3740  132.8790 C   0  0  0  0  0  0  0  0  0  0  0  0
  142.8970  163.3940  133.5120 H   0  0  0  0  0  0  0  0  0  0  0  0
  147.1137  160.8920  133.7317 H   0  0  0  0  0  0  0  0  0  0  0  0
  147.6807  158.1400  133.1750 H   0  0  0  0  0  0  0  0  0  0  0  0
  146.5864  155.8966  132.8554 H   0  0  0  0  0  0  0  0  0  0  0  0
  142.6750  157.7133  133.4976 H   0  0  0  0  0  0  0  0  0  0  0  0
  140.7956  157.4711  133.3029 H   0  0  0  0  0  0  0  0  0  0  0  0
  140.6154  160.3348  132.3887 H   0  0  0  0  0  0  0  0  0  0  0  0
  140.9555  159.0989  131.2629 H   0  0  0  0  0  0  0  0  0  0  0  0
  138.0883  158.7489  133.7009 H   0  0  0  0  0  0  0  0  0  0  0  0
  138.2497  157.4004  132.6675 H   0  0  0  0  0  0  0  0  0  0  0  0
  1  2  1  0
  2  3  2  0
  2  4  1  0
  4  5  2  0
  5  6  1  0
  6  7  2  0
  7  8  1  0
  8  9  2  0
  9 10  1  0
 10 11  1  0
 10 12  1  0
 10 13  1  0
  9 14  1  0
 14 15  2  0
 15 16  1  0
 16 17  1  0
 17 18  2  0
 17 19  1  0
 19 20  2  0
 19 21  1  0
 21 22  1  0
 22 23  1  0
 23 24  1  0
 24 25  1  0
 25 26  2  0
 25 27  1  0
 24 28  1  0
 16  4  1  0
 28 22  1  0
 15  6  1  0
  1 29  1  0
  5 30  1  0
  7 31  1  0
  8 32  1  0
 14 33  1  0
 22 34  1  0
 23 35  1  0
 23 36  1  0
 28 37  1  0
 28 38  1  0
M  CHG  3   1  -1  21  -1  27  -1
M  END
>  <UniqueID>  (97) 
97

>  <SMILES>  (97) 
[NH-]C(=O)c1cc2ccc(C(F)(F)F)cc2n1C(=O)C(=O)[N-]C1CN(C(=O)[O-])C1

>  <Energy>  (97) 
123.97111434941031

>  <Genealogy>  (97) 
[NH-]C(=O)c1cc2ccc(C(F)(F)F)cc2n1C(=O)C(=O)[N-]C1CN(C(=O)[O-])C1 (protonated)
[NH-]C(=O)c1cc2ccc(C(F)(F)F)cc2n1C(=O)C(=O)[N-]C1CN(C(=O)[O-])C1 (3D coordinates assigned)
[NH-]C(=O)c1cc2ccc(C(F)(F)F)cc2n1C(=O)C(=O)[N-]C1CN(C(=O)[O-])C1 (nonaromatic ring conformer: 123.97111434941031 kcal/mol)

>  <smiles>  (97) 
NC(=O)c1cc2ccc(C(F)(F)F)cc2n1C(=O)C(=O)NC1CN(C(=O)O)C1

>  <score_type>  (97) 
oracle

>  <origin>  (97) 
adg

>  <m_score__min__energy>  (97) 
-7.29

>  <m_primary>  (97) 
energy

$$$$
97:0
     RDKit          3D

 38 39  0  0  0  0  0  0  0  0999 V2000
  149.9180  160.2340  129.9100 C   0  0  0  0  0  0  0  0  0  0  0  0
  149.6110  159.8200  131.1370 C   0  0  0  0  0  0  0  0  0  0  0  0
  148.2290  159.8130  131.6370 C   0  0  0  0  0  0  0  0  0  0  0  0
  147.3520  160.4820  131.0250 O   0  0  0  0  0  0  0  0  0  0  0  0
  147.8930  159.0810  132.7830 O   0  0  0  0  0  0  0  0  0  0  0  0
  147.9190  157.6560  132.8410 C   0  0  0  0  0  0  0  0  0  0  0  0
  146.7540  157.1310  133.6750 C   0  0  0  0  0  0  0  0  0  0  0  0
  145.5340  157.6630  133.1690 O   0  0  0  0  0  0  0  0  0  0  0  0
  144.3250  157.5740  133.8640 C   0  0  0  0  0  0  0  0  0  0  0  0
  144.1590  156.6780  134.7360 O   0  0  0  0  0  0  0  0  0  0  0  0
  143.2690  158.5080  133.5780 N   0  0  0  0  0  0  0  0  0  0  0  0
  143.3510  159.8680  133.5830 C   0  0  0  0  0  0  0  0  0  0  0  0
  144.5910  160.6600  133.7180 C   0  0  0  0  0  0  0  0  0  0  0  0
  145.7640  160.3290  132.9750 N   0  0  0  0  0  0  0  0  0  0  0  0
  144.5950  161.6790  134.4590 O   0  0  0  0  0  0  0  0  0  0  0  0
  142.0960  160.4380  133.3920 C   0  0  0  0  0  0  0  0  0  0  0  0
  141.2320  159.3770  133.2560 C   0  0  0  0  0  0  0  0  0  0  0  0
  139.8540  159.3670  133.0590 C   0  0  0  0  0  0  0  0  0  0  0  0
  139.2080  158.1200  132.9930 C   0  0  0  0  0  0  0  0  0  0  0  0
  139.9450  156.9200  133.1320 C   0  0  0  0  0  0  0  0  0  0  0  0
  139.2720  155.6590  133.0770 N   0  0  0  0  0  0  0  0  0  0  0  0
  141.3400  156.9680  133.3320 C   0  0  0  0  0  0  0  0  0  0  0  0
  141.9630  158.2210  133.3740 C   0  0  0  0  0  0  0  0  0  0  0  0
  150.9648  160.2242  129.5721 H   0  0  0  0  0  0  0  0  0  0  0  0
  149.1250  160.5859  129.2338 H   0  0  0  0  0  0  0  0  0  0  0  0
  150.4179  159.4717  131.7985 H   0  0  0  0  0  0  0  0  0  0  0  0
  147.8446  157.2513  131.8209 H   0  0  0  0  0  0  0  0  0  0  0  0
  148.8621  157.3373  133.3090 H   0  0  0  0  0  0  0  0  0  0  0  0
  146.7273  156.0328  133.6182 H   0  0  0  0  0  0  0  0  0  0  0  0
  146.8833  157.4394  134.7229 H   0  0  0  0  0  0  0  0  0  0  0  0
  146.6460  160.8730  133.1170 H   0  0  0  0  0  0  0  0  0  0  0  0
  145.7450  159.5980  132.2310 H   0  0  0  0  0  0  0  0  0  0  0  0
  141.8480  161.5091  133.3572 H   0  0  0  0  0  0  0  0  0  0  0  0
  139.2884  160.3051  132.9582 H   0  0  0  0  0  0  0  0  0  0  0  0
  138.1207  158.0768  132.8320 H   0  0  0  0  0  0  0  0  0  0  0  0
  138.2880  155.5940  132.7350 H   0  0  0  0  0  0  0  0  0  0  0  0
  139.7530  154.7820  133.3790 H   0  0  0  0  0  0  0  0  0  0  0  0
  141.9243  156.0438  133.4521 H   0  0  0  0  0  0  0  0  0  0  0  0
  1  2  2  0
  2  3  1  0
  3  4  2  0
  3  5  1  0
  5  6  1  0
  6  7  1  0
  7  8  1  0
  8  9  1  0
  9 10  2  0
  9 11  1  0
 11 12  1  0
 12 13  1  0
 13 14  1  0
 13 15  2  0
 12 16  2  0
 16 17  1  0
 17 18  2  0
 18 19  1  0
 19 20  2  0
 20 21  1  0
 20 22  1  0
 22 23  2  0
 23 11  1  0
 23 17  1  0
  1 24  1  0
  1 25  1  0
  2 26  1  0
  6 27  1  0
  6 28  1  0
  7 29  1  0
  7 30  1  0
 14 31  1  0
 14 32  1  0
 16 33  1  0
 18 34  1  0
 19 35  1  0
 21 36  1  0
 21 37  1  0
 22 38  1  0
M  END
>  <UniqueID>  (98) 
98

>  <SMILES>  (98) 
C=CC(=O)OCCOC(=O)n1c(C(N)=O)cc2ccc(N)cc21

>  <Energy>  (98) 
68.51431211657231

>  <Genealogy>  (98) 
C=CC(=O)OCCOC(=O)n1c(C(N)=O)cc2ccc(N)cc21 (3D coordinates assigned)
C=CC(=O)OCCOC(=O)n1c(C(N)=O)cc2ccc(N)cc21 (optimized conformer: 68.51431211657231 kcal/mol)

>  <smiles>  (98) 
C=CC(=O)OCCOC(=O)n1c(C(N)=O)cc2ccc(N)cc21

>  <score_type>  (98) 
oracle

>  <origin>  (98) 
adg

>  <m_score__min__energy>  (98) 
-6.3499999999999996

>  <m_primary>  (98) 
energy

$$$$
98:0
     RDKit          3D

 43 44  0  0  0  0  0  0  0  0999 V2000
  142.3950  153.8570  136.4550 C   0  0  0  0  0  0  0  0  0  0  0  0
  142.2250  153.6140  135.0280 N   0  0  0  0  0  0  0  0  0  0  0  0
  141.6920  152.3780  134.5320 C   0  0  0  0  0  0  0  0  0  0  0  0
  141.3570  151.4670  135.3380 O   0  0  0  0  0  0  0  0  0  0  0  0
  141.5220  152.1560  133.0890 C   0  0  0  0  0  0  0  0  0  0  0  0
  140.8910  151.1470  132.6720 O   0  0  0  0  0  0  0  0  0  0  0  0
  142.0700  153.0740  132.1850 O   0  0  0  0  0  0  0  0  0  0  0  0
  143.4160  153.5330  132.2680 C   0  0  0  0  0  0  0  0  0  0  0  0
  143.4510  154.9570  132.3280 O   0  0  0  0  0  0  0  0  0  0  0  0
  143.8470  155.6600  133.4710 C   0  0  0  0  0  0  0  0  0  0  0  0
  144.5730  155.1060  134.3400 O   0  0  0  0  0  0  0  0  0  0  0  0
  143.4120  157.0150  133.6580 N   0  0  0  0  0  0  0  0  0  0  0  0
  142.1420  157.4640  133.8740 C   0  0  0  0  0  0  0  0  0  0  0  0
  140.9490  156.6200  134.0920 C   0  0  0  0  0  0  0  0  0  0  0  0
  140.8240  155.3790  133.4040 N   0  0  0  0  0  0  0  0  0  0  0  0
  140.0200  156.9990  134.8550 O   0  0  0  0  0  0  0  0  0  0  0  0
  142.1250  158.8550  133.9520 C   0  0  0  0  0  0  0  0  0  0  0  0
  143.4350  159.2460  133.7850 C   0  0  0  0  0  0  0  0  0  0  0  0
  143.9910  160.5180  133.7670 C   0  0  0  0  0  0  0  0  0  0  0  0
  145.3750  160.6310  133.5530 C   0  0  0  0  0  0  0  0  0  0  0  0
  146.1840  159.4770  133.3520 C   0  0  0  0  0  0  0  0  0  0  0  0
  147.6120  159.6040  133.1210 N   0  0  0  0  0  0  0  0  0  0  0  0
  148.5740  158.9830  134.0410 C   0  0  0  0  0  0  0  0  0  0  0  0
  148.1180  160.3570  131.9670 C   0  0  0  0  0  0  0  0  0  0  0  0
  145.5680  158.1990  133.3780 C   0  0  0  0  0  0  0  0  0  0  0  0
  144.1910  158.1190  133.6120 C   0  0  0  0  0  0  0  0  0  0  0  0
  141.8557  153.0861  137.0250 H   0  0  0  0  0  0  0  0  0  0  0  0
  143.4647  153.8193  136.7085 H   0  0  0  0  0  0  0  0  0  0  0  0
  141.9929  154.8490  136.7085 H   0  0  0  0  0  0  0  0  0  0  0  0
  142.5020  154.3680  134.3580 H   0  0  0  0  0  0  0  0  0  0  0  0
  143.8849  153.1201  133.1734 H   0  0  0  0  0  0  0  0  0  0  0  0
  143.9633  153.1992  131.3741 H   0  0  0  0  0  0  0  0  0  0  0  0
  141.4520  155.1430  132.6040 H   0  0  0  0  0  0  0  0  0  0  0  0
  141.2510  159.5032  134.1128 H   0  0  0  0  0  0  0  0  0  0  0  0
  143.3663  161.4111  133.9159 H   0  0  0  0  0  0  0  0  0  0  0  0
  145.8410  161.6273  133.5405 H   0  0  0  0  0  0  0  0  0  0  0  0
  148.2684  159.1803  135.0791 H   0  0  0  0  0  0  0  0  0  0  0  0
  148.5999  157.8973  133.8664 H   0  0  0  0  0  0  0  0  0  0  0  0
  149.5741  159.4064  133.8664 H   0  0  0  0  0  0  0  0  0  0  0  0
  148.6991  161.2218  132.3197 H   0  0  0  0  0  0  0  0  0  0  0  0
  148.7625  159.7058  131.3583 H   0  0  0  0  0  0  0  0  0  0  0  0
  147.2715  160.7077  131.3583 H   0  0  0  0  0  0  0  0  0  0  0  0
  146.1624  157.2876  133.2171 H   0  0  0  0  0  0  0  0  0  0  0  0
  1  2  1  0
  2  3  1  0
  3  4  2  0
  3  5  1  0
  5  6  2  0
  5  7  1  0
  7  8  1  0
  8  9  1  0
  9 10  1  0
 10 11  2  0
 10 12  1  0
 12 13  1  0
 13 14  1  0
 14 15  1  0
 14 16  2  0
 13 17  2  0
 17 18  1  0
 18 19  2  0
 19 20  1  0
 20 21  2  0
 21 22  1  0
 22 23  1  0
 22 24  1  0
 21 25  1  0
 25 26  2  0
 26 12  1  0
 26 18  1  0
  1 27  1  0
  1 28  1  0
  1 29  1  0
  2 30  1  0
  8 31  1  0
  8 32  1  0
 15 33  1  0
 17 34  1  0
 19 35  1  0
 20 36  1  0
 23 37  1  0
 23 38  1  0
 23 39  1  0
 24 40  1  0
 24 41  1  0
 24 42  1  0
 25 43  1  0
M  CHG  1  15  -1
M  END
>  <UniqueID>  (99) 
99

>  <SMILES>  (99) 
CNC(=O)C(=O)OCOC(=O)n1c(C([NH-])=O)cc2ccc(N(C)C)cc21

>  <Energy>  (99) 
75.25596945064964

>  <Genealogy>  (99) 
CNC(=O)C(=O)OCOC(=O)n1c(C([NH-])=O)cc2ccc(N(C)C)cc21 (protonated)
CNC(=O)C(=O)OCOC(=O)n1c(C([NH-])=O)cc2ccc(N(C)C)cc21 (3D coordinates assigned)
CNC(=O)C(=O)OCOC(=O)n1c(C([NH-])=O)cc2ccc(N(C)C)cc21 (optimized conformer: 75.25596945064964 kcal/mol)

>  <smiles>  (99) 
CNC(=O)C(=O)OCOC(=O)n1c(C(N)=O)cc2ccc(N(C)C)cc21

>  <score_type>  (99) 
oracle

>  <origin>  (99) 
adg

>  <m_score__min__energy>  (99) 
-5.9100000000000001

>  <m_primary>  (99) 
energy

$$$$
