0:0
     RDKit          3D

 37 38  0  0  0  0  0  0  0  0999 V2000
  141.8370  158.8020  134.2300 C   0  0  0  0  0  0  0  0  0  0  0  0
  143.2570  159.2090  133.9730 C   0  0  0  0  0  0  0  0  0  0  0  0
  143.6320  160.5710  134.0750 C   0  0  0  0  0  0  0  0  0  0  0  0
  144.9480  160.9730  133.7900 C   0  0  0  0  0  0  0  0  0  0  0  0
  145.8600  159.9940  133.4050 C   0  0  0  0  0  0  0  0  0  0  0  0
  147.1850  160.1110  133.0530 C   0  0  0  0  0  0  0  0  0  0  0  0
  147.6030  158.8170  132.7490 C   0  0  0  0  0  0  0  0  0  0  0  0
  148.9980  158.4590  132.4150 C   0  0  0  0  0  0  0  0  0  0  0  0
  149.3110  157.1750  131.8710 N   0  0  0  0  0  0  0  0  0  0  0  0
  149.9230  159.2990  132.5740 O   0  0  0  0  0  0  0  0  0  0  0  0
  146.5750  157.9350  132.9050 N   0  0  0  0  0  0  0  0  0  0  0  0
  146.5880  156.5240  132.6300 C   0  0  0  0  0  0  0  0  0  0  0  0
  146.9830  156.1040  131.5070 O   0  0  0  0  0  0  0  0  0  0  0  0
  146.1840  155.6200  133.6190 O   0  0  0  0  0  0  0  0  0  0  0  0
  146.9860  154.5260  134.0670 C   0  0  0  0  0  0  0  0  0  0  0  0
  148.4290  154.6950  133.5600 C   0  0  0  0  0  0  0  0  0  0  0  0
  148.5370  154.3000  132.2190 O   0  0  0  0  0  0  0  0  0  0  0  0
  146.3730  153.2210  133.5520 C   0  0  0  0  0  0  0  0  0  0  0  0
  145.8690  153.4130  132.2590 O   0  0  0  0  0  0  0  0  0  0  0  0
  145.5150  158.6710  133.3070 C   0  0  0  0  0  0  0  0  0  0  0  0
  144.2050  158.2460  133.5630 C   0  0  0  0  0  0  0  0  0  0  0  0
  141.6606  158.7514  135.3146 H   0  0  0  0  0  0  0  0  0  0  0  0
  141.1568  159.5414  133.7820 H   0  0  0  0  0  0  0  0  0  0  0  0
  141.6518  157.8146  133.7820 H   0  0  0  0  0  0  0  0  0  0  0  0
  142.8868  161.3205  134.3799 H   0  0  0  0  0  0  0  0  0  0  0  0
  145.2482  162.0283  133.8686 H   0  0  0  0  0  0  0  0  0  0  0  0
  147.7868  161.0311  133.0188 H   0  0  0  0  0  0  0  0  0  0  0  0
  150.2900  156.9520  131.5830 H   0  0  0  0  0  0  0  0  0  0  0  0
  148.5860  156.4270  131.7960 H   0  0  0  0  0  0  0  0  0  0  0  0
  147.0130  154.4999  135.1664 H   0  0  0  0  0  0  0  0  0  0  0  0
  148.7206  155.7519  133.6489 H   0  0  0  0  0  0  0  0  0  0  0  0
  149.0918  154.0615  134.1677 H   0  0  0  0  0  0  0  0  0  0  0  0
  147.6640  154.5010  131.7940 H   0  0  0  0  0  0  0  0  0  0  0  0
  147.1452  152.4379  133.5307 H   0  0  0  0  0  0  0  0  0  0  0  0
  145.5543  152.9151  134.2200 H   0  0  0  0  0  0  0  0  0  0  0  0
  146.3430  154.2050  131.8950 H   0  0  0  0  0  0  0  0  0  0  0  0
  143.9220  157.1893  133.4476 H   0  0  0  0  0  0  0  0  0  0  0  0
  1  2  1  0
  2  3  2  0
  3  4  1  0
  4  5  2  0
  5  6  1  0
  6  7  2  0
  7  8  1  0
  8  9  1  0
  8 10  2  0
  7 11  1  0
 11 12  1  0
 12 13  2  0
 12 14  1  0
 14 15  1  0
 15 16  1  0
 16 17  1  0
 15 18  1  0
 18 19  1  0
 11 20  1  0
 20 21  2  0
 21  2  1  0
 20  5  1  0
  1 22  1  0
  1 23  1  0
  1 24  1  0
  3 25  1  0
  4 26  1  0
  6 27  1  0
  9 28  1  0
  9 29  1  0
 15 30  1  0
 16 31  1  0
 16 32  1  0
 17 33  1  0
 18 34  1  0
 18 35  1  0
 19 36  1  0
 21 37  1  0
M  END
>  <UniqueID>  (1) 
1

>  <SMILES>  (1) 
Cc1ccc2cc(C(N)=O)n(C(=O)OC(CO)CO)c2c1

>  <Energy>  (1) 
69.34259070703084

>  <Genealogy>  (1) 
Cc1ccc2cc(C(N)=O)n(C(=O)OC(CO)CO)c2c1 (3D coordinates assigned)
Cc1ccc2cc(C(N)=O)n(C(=O)OC(CO)CO)c2c1 (optimized conformer: 69.34259070703084 kcal/mol)

>  <smiles>  (1) 
Cc1ccc2cc(C(N)=O)n(C(=O)OC(CO)CO)c2c1

>  <score_type>  (1) 
oracle

>  <origin>  (1) 
adg

>  <m_score__min__energy>  (1) 
-6.3799999999999999

>  <m_primary>  (1) 
energy

$$$$
1:0
     RDKit          3D

 38 40  0  0  0  0  0  0  0  0999 V2000
  140.0090  157.9820  133.3650 C   0  0  0  0  0  0  0  0  0  0  0  0
  140.5070  159.0090  134.2130 O   0  0  0  0  0  0  0  0  0  0  0  0
  141.4700  158.7720  135.1990 C   0  0  0  0  0  0  0  0  0  0  0  0
  141.8650  159.7050  135.9490 O   0  0  0  0  0  0  0  0  0  0  0  0
  142.0630  157.4050  135.3390 C   0  0  0  0  0  0  0  0  0  0  0  0
  143.3840  157.3750  134.8040 O   0  0  0  0  0  0  0  0  0  0  0  0
  143.7490  158.0370  133.6250 C   0  0  0  0  0  0  0  0  0  0  0  0
  142.9630  158.0630  132.6390 O   0  0  0  0  0  0  0  0  0  0  0  0
  145.0290  158.6770  133.5360 N   0  0  0  0  0  0  0  0  0  0  0  0
  145.2980  160.0130  133.5300 C   0  0  0  0  0  0  0  0  0  0  0  0
  144.3210  161.0950  133.7760 C   0  0  0  0  0  0  0  0  0  0  0  0
  142.9210  160.8590  133.6630 N   0  0  0  0  0  0  0  0  0  0  0  0
  144.7280  162.2310  134.1380 O   0  0  0  0  0  0  0  0  0  0  0  0
  146.6610  160.2350  133.3460 C   0  0  0  0  0  0  0  0  0  0  0  0
  147.2250  158.9830  133.2500 C   0  0  0  0  0  0  0  0  0  0  0  0
  148.5500  158.6110  133.0560 C   0  0  0  0  0  0  0  0  0  0  0  0
  148.8450  157.2400  132.9720 C   0  0  0  0  0  0  0  0  0  0  0  0
  147.8150  156.2680  133.0760 C   0  0  0  0  0  0  0  0  0  0  0  0
  148.1110  154.8210  132.9790 C   0  0  0  0  0  0  0  0  0  0  0  0
  147.3570  153.7660  133.4580 C   0  0  0  0  0  0  0  0  0  0  0  0
  148.0000  152.6270  133.1510 N   0  0  0  0  0  0  0  0  0  0  0  0
  149.1130  153.0150  132.5020 C   0  0  0  0  0  0  0  0  0  0  0  0
  149.1820  154.3230  132.3980 O   0  0  0  0  0  0  0  0  0  0  0  0
  146.4800  156.6880  133.2720 C   0  0  0  0  0  0  0  0  0  0  0  0
  146.2200  158.0600  133.3700 C   0  0  0  0  0  0  0  0  0  0  0  0
  139.6107  157.1606  133.9788 H   0  0  0  0  0  0  0  0  0  0  0  0
  139.2074  158.3873  132.7301 H   0  0  0  0  0  0  0  0  0  0  0  0
  140.8237  157.6035  132.7301 H   0  0  0  0  0  0  0  0  0  0  0  0
  142.0980  157.1333  136.4043 H   0  0  0  0  0  0  0  0  0  0  0  0
  141.4390  156.6887  134.7844 H   0  0  0  0  0  0  0  0  0  0  0  0
  142.5190  159.9100  133.8270 H   0  0  0  0  0  0  0  0  0  0  0  0
  147.1769  161.2049  133.2894 H   0  0  0  0  0  0  0  0  0  0  0  0
  149.3440  159.3675  132.9708 H   0  0  0  0  0  0  0  0  0  0  0  0
  149.8857  156.9158  132.8240 H   0  0  0  0  0  0  0  0  0  0  0  0
  146.4003  153.8450  133.9952 H   0  0  0  0  0  0  0  0  0  0  0  0
  147.7020  151.6510  133.3680 H   0  0  0  0  0  0  0  0  0  0  0  0
  149.8713  152.3228  132.1073 H   0  0  0  0  0  0  0  0  0  0  0  0
  145.6641  155.9539  133.3458 H   0  0  0  0  0  0  0  0  0  0  0  0
  1  2  1  0
  2  3  1  0
  3  4  2  0
  3  5  1  0
  5  6  1  0
  6  7  1  0
  7  8  2  0
  7  9  1  0
  9 10  1  0
 10 11  1  0
 11 12  1  0
 11 13  2  0
 10 14  2  0
 14 15  1  0
 15 16  2  0
 16 17  1  0
 17 18  2  0
 18 19  1  0
 19 20  2  0
 20 21  1  0
 21 22  2  0
 22 23  1  0
 18 24  1  0
 24 25  2  0
 25  9  1  0
 25 15  1  0
 23 19  1  0
  1 26  1  0
  1 27  1  0
  1 28  1  0
  5 29  1  0
  5 30  1  0
 12 31  1  0
 14 32  1  0
 16 33  1  0
 17 34  1  0
 20 35  1  0
 21 36  1  0
 22 37  1  0
 24 38  1  0
M  CHG  2  12  -1  21   1
M  END
>  <UniqueID>  (2) 
2

>  <SMILES>  (2) 
COC(=O)COC(=O)n1c(C([NH-])=O)cc2ccc(-c3c[nH+]co3)cc21

>  <Energy>  (2) 
106.37680671406375

>  <Genealogy>  (2) 
COC(=O)COC(=O)n1c(C([NH-])=O)cc2ccc(-c3c[nH+]co3)cc21 (protonated)
COC(=O)COC(=O)n1c(C([NH-])=O)cc2ccc(-c3c[nH+]co3)cc21 (3D coordinates assigned)
COC(=O)COC(=O)n1c(C([NH-])=O)cc2ccc(-c3c[nH+]co3)cc21 (optimized conformer: 106.37680671406375 kcal/mol)

>  <smiles>  (2) 
COC(=O)COC(=O)n1c(C(N)=O)cc2ccc(-c3cnco3)cc21

>  <score_type>  (2) 
oracle

>  <origin>  (2) 
adg

>  <m_score__min__energy>  (2) 
-6.1399999999999997

>  <m_primary>  (2) 
energy

$$$$
2:0
     RDKit          3D

 34 35  0  0  0  0  0  0  0  0999 V2000
  147.4360  154.3820  133.5370 C   0  0  0  0  0  0  0  0  0  0  0  0
  146.5180  154.5690  134.7480 C   0  0  2  0  0  0  0  0  0  0  0  0
  146.0020  155.8990  134.7830 O   0  0  0  0  0  0  0  0  0  0  0  0
  145.4310  156.5400  133.6770 C   0  0  0  0  0  0  0  0  0  0  0  0
  144.9240  155.8630  132.7400 O   0  0  0  0  0  0  0  0  0  0  0  0
  145.4120  157.9760  133.6190 N   0  0  0  0  0  0  0  0  0  0  0  0
  146.4860  158.8130  133.6680 C   0  0  0  0  0  0  0  0  0  0  0  0
  147.9030  158.4060  133.6120 C   0  0  0  0  0  0  0  0  0  0  0  0
  148.4290  157.4340  134.5170 N   0  0  0  0  0  0  0  0  0  0  0  0
  148.6500  158.8820  132.7150 O   0  0  0  0  0  0  0  0  0  0  0  0
  146.0740  160.1410  133.7280 C   0  0  0  0  0  0  0  0  0  0  0  0
  144.7000  160.0950  133.7010 C   0  0  0  0  0  0  0  0  0  0  0  0
  143.7710  161.1310  133.7390 C   0  0  0  0  0  0  0  0  0  0  0  0
  142.4080  160.7950  133.7300 C   0  0  0  0  0  0  0  0  0  0  0  0
  141.9960  159.4370  133.7100 C   0  0  0  0  0  0  0  0  0  0  0  0
  140.5290  159.0900  133.6640 C   0  0  0  0  0  0  0  0  0  0  0  0
  140.0160  158.9600  134.9430 F   0  0  0  0  0  0  0  0  0  0  0  0
  140.3310  157.8940  132.9960 F   0  0  0  0  0  0  0  0  0  0  0  0
  139.8450  160.0930  133.0030 F   0  0  0  0  0  0  0  0  0  0  0  0
  142.9700  158.4140  133.6490 C   0  0  0  0  0  0  0  0  0  0  0  0
  144.3230  158.7780  133.6380 C   0  0  0  0  0  0  0  0  0  0  0  0
  147.2880  154.3130  136.0080 C   0  0  0  0  0  0  0  0  0  0  0  0
  148.1050  155.1700  136.4360 O   0  0  0  0  0  0  0  0  0  0  0  0
  147.0690  153.1490  136.7350 O   0  0  0  0  0  0  0  0  0  0  0  0
  148.4596  154.1735  133.8816 H   0  0  0  0  0  0  0  0  0  0  0  0
  147.0747  153.5390  132.9297 H   0  0  0  0  0  0  0  0  0  0  0  0
  147.4332  155.2992  132.9297 H   0  0  0  0  0  0  0  0  0  0  0  0
  145.6823  153.8586  134.6654 H   0  0  0  0  0  0  0  0  0  0  0  0
  147.8000  156.9010  135.1570 H   0  0  0  0  0  0  0  0  0  0  0  0
  149.4440  157.1900  134.4950 H   0  0  0  0  0  0  0  0  0  0  0  0
  146.7112  161.0359  133.7848 H   0  0  0  0  0  0  0  0  0  0  0  0
  144.0952  162.1815  133.7750 H   0  0  0  0  0  0  0  0  0  0  0  0
  141.6510  161.5930  133.7385 H   0  0  0  0  0  0  0  0  0  0  0  0
  142.6722  157.3558  133.6110 H   0  0  0  0  0  0  0  0  0  0  0  0
  1  2  1  0
  2  3  1  0
  3  4  1  0
  4  5  2  0
  4  6  1  0
  6  7  1  0
  7  8  1  0
  8  9  1  0
  8 10  2  0
  7 11  2  0
 11 12  1  0
 12 13  2  0
 13 14  1  0
 14 15  2  0
 15 16  1  0
 16 17  1  0
 16 18  1  0
 16 19  1  0
 15 20  1  0
 20 21  2  0
  2 22  1  0
 22 23  2  0
 22 24  1  0
 21  6  1  0
 21 12  1  0
  1 25  1  0
  1 26  1  0
  1 27  1  0
  2 28  1  6
  9 29  1  0
  9 30  1  0
 11 31  1  0
 13 32  1  0
 14 33  1  0
 20 34  1  0
M  CHG  1  24  -1
M  END
>  <UniqueID>  (3) 
3

>  <SMILES>  (3) 
C[C@H](OC(=O)n1c(C(N)=O)cc2ccc(C(F)(F)F)cc21)C(=O)[O-]

>  <Energy>  (3) 
69.47371000635394

>  <Genealogy>  (3) 
CC(OC(=O)n1c(C(N)=O)cc2ccc(C(F)(F)F)cc21)C(=O)[O-] (protonated)
C[C@H](OC(=O)n1c(C(N)=O)cc2ccc(C(F)(F)F)cc21)C(=O)[O-] (chirality)
C[C@H](OC(=O)n1c(C(N)=O)cc2ccc(C(F)(F)F)cc21)C(=O)[O-] (3D coordinates assigned)
C[C@H](OC(=O)n1c(C(N)=O)cc2ccc(C(F)(F)F)cc21)C(=O)[O-] (optimized conformer: 69.47371000635394 kcal/mol)

>  <smiles>  (3) 
CC(OC(=O)n1c(C(N)=O)cc2ccc(C(F)(F)F)cc21)C(=O)O

>  <score_type>  (3) 
oracle

>  <origin>  (3) 
adg

>  <m_score__min__energy>  (3) 
-6.1600000000000001

>  <m_primary>  (3) 
energy

$$$$
3:0
     RDKit          3D

 35 36  0  0  0  0  0  0  0  0999 V2000
  143.1850  160.3950  133.3070 N   0  0  0  0  0  0  0  0  0  0  0  0
  144.5020  160.5640  133.8350 C   0  0  0  0  0  0  0  0  0  0  0  0
  144.7450  161.5650  134.5620 O   0  0  0  0  0  0  0  0  0  0  0  0
  145.5660  159.5740  133.5570 C   0  0  0  0  0  0  0  0  0  0  0  0
  146.8670  159.9020  133.1700 C   0  0  0  0  0  0  0  0  0  0  0  0
  147.5000  158.6970  132.9610 C   0  0  0  0  0  0  0  0  0  0  0  0
  148.8110  158.4270  132.5810 C   0  0  0  0  0  0  0  0  0  0  0  0
  149.2030  157.0810  132.4760 C   0  0  0  0  0  0  0  0  0  0  0  0
  148.2850  156.0370  132.7520 C   0  0  0  0  0  0  0  0  0  0  0  0
  148.7120  154.6000  132.6570 C   0  0  0  0  0  0  0  0  0  0  0  0
  148.5200  153.9750  133.8750 F   0  0  0  0  0  0  0  0  0  0  0  0
  150.0500  154.5340  132.3160 F   0  0  0  0  0  0  0  0  0  0  0  0
  146.9630  156.3510  133.1400 C   0  0  0  0  0  0  0  0  0  0  0  0
  146.5970  157.6990  133.2170 C   0  0  0  0  0  0  0  0  0  0  0  0
  145.4040  158.2210  133.5730 N   0  0  0  0  0  0  0  0  0  0  0  0
  144.2340  157.4880  133.9680 C   0  0  0  0  0  0  0  0  0  0  0  0
  144.3130  156.6430  134.9000 O   0  0  0  0  0  0  0  0  0  0  0  0
  142.9440  157.7120  133.3010 C   0  0  0  0  0  0  0  0  0  0  0  0
  142.8200  157.4610  132.0720 O   0  0  0  0  0  0  0  0  0  0  0  0
  141.8370  158.2310  134.0480 N   0  0  0  0  0  0  0  0  0  0  0  0
  140.4410  157.9590  133.7230 C   0  0  0  0  0  0  0  0  0  0  0  0
  139.9190  158.9560  132.6890 C   0  0  0  0  0  0  0  0  0  0  0  0
  140.9230  159.8700  132.3460 O   0  0  0  0  0  0  0  0  0  0  0  0
  142.9570  159.6220  132.6460 H   0  0  0  0  0  0  0  0  0  0  0  0
  142.4330  161.0780  133.5500 H   0  0  0  0  0  0  0  0  0  0  0  0
  147.2952  160.9088  133.0563 H   0  0  0  0  0  0  0  0  0  0  0  0
  149.5190  159.2418  132.3692 H   0  0  0  0  0  0  0  0  0  0  0  0
  150.2326  156.8356  132.1766 H   0  0  0  0  0  0  0  0  0  0  0  0
  148.1104  154.0955  131.8866 H   0  0  0  0  0  0  0  0  0  0  0  0
  146.2403  155.5559  133.3754 H   0  0  0  0  0  0  0  0  0  0  0  0
  140.3576  156.9406  133.3158 H   0  0  0  0  0  0  0  0  0  0  0  0
  139.8408  158.0559  134.6397 H   0  0  0  0  0  0  0  0  0  0  0  0
  139.6008  158.4112  131.7879 H   0  0  0  0  0  0  0  0  0  0  0  0
  139.0672  159.5040  133.1181 H   0  0  0  0  0  0  0  0  0  0  0  0
  141.7360  159.3310  132.1640 H   0  0  0  0  0  0  0  0  0  0  0  0
  1  2  1  0
  2  3  2  0
  2  4  1  0
  4  5  2  0
  5  6  1  0
  6  7  2  0
  7  8  1  0
  8  9  2  0
  9 10  1  0
 10 11  1  0
 10 12  1  0
  9 13  1  0
 13 14  2  0
 14 15  1  0
 15 16  1  0
 16 17  2  0
 16 18  1  0
 18 19  2  0
 18 20  1  0
 20 21  1  0
 21 22  1  0
 22 23  1  0
 15  4  1  0
 14  6  1  0
  1 24  1  0
  1 25  1  0
  5 26  1  0
  7 27  1  0
  8 28  1  0
 10 29  1  0
 13 30  1  0
 21 31  1  0
 21 32  1  0
 22 33  1  0
 22 34  1  0
 23 35  1  0
M  CHG  1  20  -1
M  END
>  <UniqueID>  (4) 
4

>  <SMILES>  (4) 
NC(=O)c1cc2ccc(C(F)F)cc2n1C(=O)C(=O)[N-]CCO

>  <Energy>  (4) 
69.22510430013914

>  <Genealogy>  (4) 
NC(=O)c1cc2ccc(C(F)F)cc2n1C(=O)C(=O)[N-]CCO (protonated)
NC(=O)c1cc2ccc(C(F)F)cc2n1C(=O)C(=O)[N-]CCO (3D coordinates assigned)
NC(=O)c1cc2ccc(C(F)F)cc2n1C(=O)C(=O)[N-]CCO (optimized conformer: 69.22510430013914 kcal/mol)

>  <smiles>  (4) 
NC(=O)c1cc2ccc(C(F)F)cc2n1C(=O)C(=O)NCCO

>  <score_type>  (4) 
oracle

>  <origin>  (4) 
adg

>  <m_score__min__energy>  (4) 
-6.0499999999999998

>  <m_primary>  (4) 
energy

$$$$
4:0
     RDKit          3D

 50 51  0  0  0  0  0  0  0  0999 V2000
  139.8630  159.3540  131.1480 C   0  0  0  0  0  0  0  0  0  0  0  0
  140.7350  158.9340  132.2390 N   0  0  0  0  0  0  0  0  0  0  0  0
  140.2540  158.1250  133.3190 C   0  0  0  0  0  0  0  0  0  0  0  0
  139.0400  157.7820  133.3620 O   0  0  0  0  0  0  0  0  0  0  0  0
  141.1760  157.7320  134.4370 C   0  0  1  0  0  0  0  0  0  0  0  0
  141.4220  156.2220  134.3900 C   0  0  0  0  0  0  0  0  0  0  0  0
  142.4080  158.4390  134.2970 O   0  0  0  0  0  0  0  0  0  0  0  0
  143.3460  158.1860  133.2900 C   0  0  0  0  0  0  0  0  0  0  0  0
  143.0350  157.4740  132.2970 O   0  0  0  0  0  0  0  0  0  0  0  0
  144.6570  158.7690  133.3790 N   0  0  0  0  0  0  0  0  0  0  0  0
  144.9870  160.0730  133.6000 C   0  0  0  0  0  0  0  0  0  0  0  0
  144.0450  161.2120  133.6480 C   0  0  0  0  0  0  0  0  0  0  0  0
  142.6640  161.0020  133.3640 N   0  0  0  0  0  0  0  0  0  0  0  0
  144.4400  162.3620  133.9760 O   0  0  0  0  0  0  0  0  0  0  0  0
  146.3690  160.2180  133.6920 C   0  0  0  0  0  0  0  0  0  0  0  0
  146.8820  158.9550  133.5100 C   0  0  0  0  0  0  0  0  0  0  0  0
  148.2010  158.5160  133.5100 C   0  0  0  0  0  0  0  0  0  0  0  0
  148.4410  157.1450  133.3150 C   0  0  0  0  0  0  0  0  0  0  0  0
  147.3660  156.2310  133.1310 C   0  0  0  0  0  0  0  0  0  0  0  0
  147.6250  154.8180  132.9250 N   0  0  0  0  0  0  0  0  0  0  0  0
  146.5300  153.8460  133.0190 C   0  0  0  0  0  0  0  0  0  0  0  0
  148.9740  154.3290  132.5990 C   0  0  0  0  0  0  0  0  0  0  0  0
  149.0580  152.8090  132.7520 C   0  0  0  0  0  0  0  0  0  0  0  0
  149.6090  152.2590  131.5740 O   0  0  0  0  0  0  0  0  0  0  0  0
  150.0030  150.9280  131.8170 C   0  0  0  0  0  0  0  0  0  0  0  0
  146.0390  156.7260  133.1510 C   0  0  0  0  0  0  0  0  0  0  0  0
  145.8300  158.0990  133.3240 C   0  0  0  0  0  0  0  0  0  0  0  0
  138.9448  159.7962  131.5620 H   0  0  0  0  0  0  0  0  0  0  0  0
  140.3830  160.1004  130.5296 H   0  0  0  0  0  0  0  0  0  0  0  0
  139.6035  158.4821  130.5296 H   0  0  0  0  0  0  0  0  0  0  0  0
  141.7340  159.2400  132.2290 H   0  0  0  0  0  0  0  0  0  0  0  0
  140.7214  157.9865  135.4058 H   0  0  0  0  0  0  0  0  0  0  0  0
  141.4860  155.8289  135.4153 H   0  0  0  0  0  0  0  0  0  0  0  0
  140.5919  155.7316  133.8604 H   0  0  0  0  0  0  0  0  0  0  0  0
  142.3648  156.0204  133.8604 H   0  0  0  0  0  0  0  0  0  0  0  0
  142.3380  160.1240  132.9020 H   0  0  0  0  0  0  0  0  0  0  0  0
  146.9312  161.1462  133.8721 H   0  0  0  0  0  0  0  0  0  0  0  0
  149.0324  159.2209  133.6582 H   0  0  0  0  0  0  0  0  0  0  0  0
  149.4760  156.7727  133.3045 H   0  0  0  0  0  0  0  0  0  0  0  0
  146.3060  153.6472  134.0774 H   0  0  0  0  0  0  0  0  0  0  0  0
  145.6353  154.2527  132.5250 H   0  0  0  0  0  0  0  0  0  0  0  0
  146.8277  152.9093  132.5250 H   0  0  0  0  0  0  0  0  0  0  0  0
  149.2135  154.5997  131.5601 H   0  0  0  0  0  0  0  0  0  0  0  0
  149.6915  154.7913  133.2929 H   0  0  0  0  0  0  0  0  0  0  0  0
  149.6988  152.5595  133.6105 H   0  0  0  0  0  0  0  0  0  0  0  0
  148.0525  152.3959  132.9205 H   0  0  0  0  0  0  0  0  0  0  0  0
  150.0548  150.7532  132.9018 H   0  0  0  0  0  0  0  0  0  0  0  0
  149.2697  150.2410  131.3694 H   0  0  0  0  0  0  0  0  0  0  0  0
  150.9921  150.7509  131.3694 H   0  0  0  0  0  0  0  0  0  0  0  0
  145.1859  156.0418  133.0324 H   0  0  0  0  0  0  0  0  0  0  0  0
  1  2  1  0
  2  3  1  0
  3  4  2  0
  3  5  1  0
  5  6  1  0
  5  7  1  0
  7  8  1  0
  8  9  2  0
  8 10  1  0
 10 11  1  0
 11 12  1  0
 12 13  1  0
 12 14  2  0
 11 15  2  0
 15 16  1  0
 16 17  2  0
 17 18  1  0
 18 19  2  0
 19 20  1  0
 20 21  1  0
 20 22  1  0
 22 23  1  0
 23 24  1  0
 24 25  1  0
 19 26  1  0
 26 27  2  0
 27 10  1  0
 27 16  1  0
  1 28  1  0
  1 29  1  0
  1 30  1  0
  2 31  1  0
  5 32  1  1
  6 33  1  0
  6 34  1  0
  6 35  1  0
 13 36  1  0
 15 37  1  0
 17 38  1  0
 18 39  1  0
 21 40  1  0
 21 41  1  0
 21 42  1  0
 22 43  1  0
 22 44  1  0
 23 45  1  0
 23 46  1  0
 25 47  1  0
 25 48  1  0
 25 49  1  0
 26 50  1  0
M  CHG  1  13  -1
M  END
>  <UniqueID>  (5) 
5

>  <SMILES>  (5) 
CNC(=O)[C@@H](C)OC(=O)n1c(C([NH-])=O)cc2ccc(N(C)CCOC)cc21

>  <Energy>  (5) 
79.49729961977364

>  <Genealogy>  (5) 
CNC(=O)C(C)OC(=O)n1c(C([NH-])=O)cc2ccc(N(C)CCOC)cc21 (protonated)
CNC(=O)[C@@H](C)OC(=O)n1c(C([NH-])=O)cc2ccc(N(C)CCOC)cc21 (chirality)
CNC(=O)[C@@H](C)OC(=O)n1c(C([NH-])=O)cc2ccc(N(C)CCOC)cc21 (3D coordinates assigned)
CNC(=O)[C@@H](C)OC(=O)n1c(C([NH-])=O)cc2ccc(N(C)CCOC)cc21 (optimized conformer: 79.49729961977364 kcal/mol)

>  <smiles>  (5) 
CNC(=O)C(C)OC(=O)n1c(C(N)=O)cc2ccc(N(C)CCOC)cc21

>  <score_type>  (5) 
oracle

>  <origin>  (5) 
adg

>  <m_score__min__energy>  (5) 
-7.1799999999999997

>  <m_primary>  (5) 
energy

$$$$
5:0
     RDKit          3D

 38 39  0  0  0  0  0  0  0  0999 V2000
  138.7240  160.0990  129.9720 C   0  0  0  0  0  0  0  0  0  0  0  0
  138.3350  160.1380  131.7510 S   0  0  0  0  0  0  0  0  0  0  0  0
  139.2710  158.6300  132.1910 C   0  0  0  0  0  0  0  0  0  0  0  0
  140.7220  158.9740  132.5410 C   0  0  0  0  0  0  0  0  0  0  0  0
  141.6120  157.7310  132.6440 C   0  0  0  0  0  0  0  0  0  0  0  0
  142.9960  158.0790  132.6070 O   0  0  0  0  0  0  0  0  0  0  0  0
  143.7800  158.2870  133.7490 C   0  0  0  0  0  0  0  0  0  0  0  0
  143.3780  157.8970  134.8780 O   0  0  0  0  0  0  0  0  0  0  0  0
  145.0690  158.9130  133.6260 N   0  0  0  0  0  0  0  0  0  0  0  0
  145.3440  160.2470  133.5620 C   0  0  0  0  0  0  0  0  0  0  0  0
  144.3850  161.3450  133.7900 C   0  0  0  0  0  0  0  0  0  0  0  0
  142.9810  161.1260  133.6800 N   0  0  0  0  0  0  0  0  0  0  0  0
  144.8060  162.4810  134.1380 O   0  0  0  0  0  0  0  0  0  0  0  0
  146.7010  160.4560  133.3260 C   0  0  0  0  0  0  0  0  0  0  0  0
  147.2560  159.1990  133.2540 C   0  0  0  0  0  0  0  0  0  0  0  0
  148.5710  158.8180  133.0100 C   0  0  0  0  0  0  0  0  0  0  0  0
  148.8580  157.4440  132.9470 C   0  0  0  0  0  0  0  0  0  0  0  0
  147.8350  156.4800  133.1380 C   0  0  0  0  0  0  0  0  0  0  0  0
  148.1420  155.0110  133.0050 C   0  0  0  0  0  0  0  0  0  0  0  0
  147.1500  154.4030  132.2590 F   0  0  0  0  0  0  0  0  0  0  0  0
  149.3610  154.8210  132.3760 F   0  0  0  0  0  0  0  0  0  0  0  0
  148.2020  154.4090  134.2510 F   0  0  0  0  0  0  0  0  0  0  0  0
  146.5050  156.9100  133.3590 C   0  0  0  0  0  0  0  0  0  0  0  0
  146.2520  158.2850  133.4370 C   0  0  0  0  0  0  0  0  0  0  0  0
  139.8102  159.9901  129.8365 H   0  0  0  0  0  0  0  0  0  0  0  0
  138.2088  159.2480  129.5026 H   0  0  0  0  0  0  0  0  0  0  0  0
  138.3880  161.0353  129.5026 H   0  0  0  0  0  0  0  0  0  0  0  0
  138.7947  158.1501  133.0586 H   0  0  0  0  0  0  0  0  0  0  0  0
  139.2683  157.9485  131.3275 H   0  0  0  0  0  0  0  0  0  0  0  0
  141.1265  159.6335  131.7591 H   0  0  0  0  0  0  0  0  0  0  0  0
  140.7205  159.4661  133.5248 H   0  0  0  0  0  0  0  0  0  0  0  0
  141.3977  157.2144  133.5912 H   0  0  0  0  0  0  0  0  0  0  0  0
  141.3955  157.0772  131.7863 H   0  0  0  0  0  0  0  0  0  0  0  0
  142.6040  160.1890  133.4150 H   0  0  0  0  0  0  0  0  0  0  0  0
  147.2187  161.4207  133.2198 H   0  0  0  0  0  0  0  0  0  0  0  0
  149.3623  159.5693  132.8706 H   0  0  0  0  0  0  0  0  0  0  0  0
  149.8876  157.1121  132.7473 H   0  0  0  0  0  0  0  0  0  0  0  0
  145.6886  156.1808  133.4670 H   0  0  0  0  0  0  0  0  0  0  0  0
  1  2  1  0
  2  3  1  0
  3  4  1  0
  4  5  1  0
  5  6  1  0
  6  7  1  0
  7  8  2  0
  7  9  1  0
  9 10  1  0
 10 11  1  0
 11 12  1  0
 11 13  2  0
 10 14  2  0
 14 15  1  0
 15 16  2  0
 16 17  1  0
 17 18  2  0
 18 19  1  0
 19 20  1  0
 19 21  1  0
 19 22  1  0
 18 23  1  0
 23 24  2  0
 24  9  1  0
 24 15  1  0
  1 25  1  0
  1 26  1  0
  1 27  1  0
  3 28  1  0
  3 29  1  0
  4 30  1  0
  4 31  1  0
  5 32  1  0
  5 33  1  0
 12 34  1  0
 14 35  1  0
 16 36  1  0
 17 37  1  0
 23 38  1  0
M  CHG  1  12  -1
M  END
>  <UniqueID>  (6) 
6

>  <SMILES>  (6) 
CSCCCOC(=O)n1c(C([NH-])=O)cc2ccc(C(F)(F)F)cc21

>  <Energy>  (6) 
69.71927621891403

>  <Genealogy>  (6) 
CSCCCOC(=O)n1c(C([NH-])=O)cc2ccc(C(F)(F)F)cc21 (protonated)
CSCCCOC(=O)n1c(C([NH-])=O)cc2ccc(C(F)(F)F)cc21 (3D coordinates assigned)
CSCCCOC(=O)n1c(C([NH-])=O)cc2ccc(C(F)(F)F)cc21 (optimized conformer: 69.71927621891403 kcal/mol)

>  <smiles>  (6) 
CSCCCOC(=O)n1c(C(N)=O)cc2ccc(C(F)(F)F)cc21

>  <score_type>  (6) 
oracle

>  <origin>  (6) 
adg

>  <m_score__min__energy>  (6) 
-6.1500000000000004

>  <m_primary>  (6) 
energy

$$$$
6:0
     RDKit          3D

 34 36  0  0  0  0  0  0  0  0999 V2000
  148.4740  157.3850  133.8540 N   0  0  0  0  0  0  0  0  0  0  0  0
  147.9700  158.7000  133.6120 C   0  0  0  0  0  0  0  0  0  0  0  0
  148.7810  159.6290  133.3550 O   0  0  0  0  0  0  0  0  0  0  0  0
  146.5200  158.9820  133.6990 C   0  0  0  0  0  0  0  0  0  0  0  0
  145.9780  160.2650  133.7320 C   0  0  0  0  0  0  0  0  0  0  0  0
  144.6140  160.0850  133.7150 C   0  0  0  0  0  0  0  0  0  0  0  0
  143.5890  161.0240  133.7450 C   0  0  0  0  0  0  0  0  0  0  0  0
  142.2640  160.5550  133.7460 C   0  0  0  0  0  0  0  0  0  0  0  0
  141.9870  159.1620  133.7240 C   0  0  0  0  0  0  0  0  0  0  0  0
  140.5970  158.6550  133.7390 C   0  0  0  0  0  0  0  0  0  0  0  0
  139.7270  158.5230  132.6740 C   0  0  0  0  0  0  0  0  0  0  0  0
  138.5610  158.0210  133.1240 N   0  0  0  0  0  0  0  0  0  0  0  0
  138.7680  157.8690  134.4480 C   0  0  0  0  0  0  0  0  0  0  0  0
  139.9730  158.2430  134.8150 O   0  0  0  0  0  0  0  0  0  0  0  0
  143.0590  158.2410  133.6930 C   0  0  0  0  0  0  0  0  0  0  0  0
  144.3680  158.7370  133.6740 C   0  0  0  0  0  0  0  0  0  0  0  0
  145.5290  158.0460  133.6640 N   0  0  0  0  0  0  0  0  0  0  0  0
  145.6780  156.6170  133.6930 C   0  0  0  0  0  0  0  0  0  0  0  0
  146.1860  156.0150  132.7070 O   0  0  0  0  0  0  0  0  0  0  0  0
  145.2450  155.8960  134.8120 O   0  0  0  0  0  0  0  0  0  0  0  0
  145.5740  154.5280  135.0390 C   0  0  0  0  0  0  0  0  0  0  0  0
  146.8240  154.4220  135.8510 C   0  0  0  0  0  0  0  0  0  0  0  0
  147.7310  155.2880  135.7390 O   0  0  0  0  0  0  0  0  0  0  0  0
  146.9990  153.3500  136.7180 O   0  0  0  0  0  0  0  0  0  0  0  0
  149.5030  157.2060  133.8290 H   0  0  0  0  0  0  0  0  0  0  0  0
  147.8320  156.5800  134.0170 H   0  0  0  0  0  0  0  0  0  0  0  0
  146.5244  161.2191  133.7647 H   0  0  0  0  0  0  0  0  0  0  0  0
  143.8085  162.1017  133.7673 H   0  0  0  0  0  0  0  0  0  0  0  0
  141.4323  161.2747  133.7640 H   0  0  0  0  0  0  0  0  0  0  0  0
  139.9501  158.7851  131.6292 H   0  0  0  0  0  0  0  0  0  0  0  0
  138.0120  157.4756  135.1435 H   0  0  0  0  0  0  0  0  0  0  0  0
  142.8687  157.1576  133.6840 H   0  0  0  0  0  0  0  0  0  0  0  0
  144.7484  154.0412  135.5789 H   0  0  0  0  0  0  0  0  0  0  0  0
  145.7345  154.0334  134.0697 H   0  0  0  0  0  0  0  0  0  0  0  0
  1  2  1  0
  2  3  2  0
  2  4  1  0
  4  5  2  0
  5  6  1  0
  6  7  2  0
  7  8  1  0
  8  9  2  0
  9 10  1  0
 10 11  2  0
 11 12  1  0
 12 13  2  0
 13 14  1  0
  9 15  1  0
 15 16  2  0
 16 17  1  0
 17 18  1  0
 18 19  2  0
 18 20  1  0
 20 21  1  0
 21 22  1  0
 22 23  2  0
 22 24  1  0
 17  4  1  0
 16  6  1  0
 14 10  1  0
  1 25  1  0
  1 26  1  0
  5 27  1  0
  7 28  1  0
  8 29  1  0
 11 30  1  0
 13 31  1  0
 15 32  1  0
 21 33  1  0
 21 34  1  0
M  CHG  1  24  -1
M  END
>  <UniqueID>  (7) 
7

>  <SMILES>  (7) 
NC(=O)c1cc2ccc(-c3cnco3)cc2n1C(=O)OCC(=O)[O-]

>  <Energy>  (7) 
103.47091362732719

>  <Genealogy>  (7) 
NC(=O)c1cc2ccc(-c3cnco3)cc2n1C(=O)OCC(=O)[O-] (protonated)
NC(=O)c1cc2ccc(-c3cnco3)cc2n1C(=O)OCC(=O)[O-] (3D coordinates assigned)
NC(=O)c1cc2ccc(-c3cnco3)cc2n1C(=O)OCC(=O)[O-] (optimized conformer: 103.47091362732719 kcal/mol)

>  <smiles>  (7) 
NC(=O)c1cc2ccc(-c3cnco3)cc2n1C(=O)OCC(=O)O

>  <score_type>  (7) 
oracle

>  <origin>  (7) 
adg

>  <m_score__min__energy>  (7) 
-6.5999999999999996

>  <m_primary>  (7) 
energy

$$$$
7:0
     RDKit          3D

 51 52  0  0  0  0  0  0  0  0999 V2000
  149.0820  152.8210  132.2670 C   0  0  0  0  0  0  0  0  0  0  0  0
  148.8710  153.9420  133.1200 O   0  0  0  0  0  0  0  0  0  0  0  0
  147.7650  154.7920  132.9930 C   0  0  0  0  0  0  0  0  0  0  0  0
  147.8460  155.8480  132.3000 O   0  0  0  0  0  0  0  0  0  0  0  0
  146.4700  154.4020  133.6540 C   0  0  1  0  0  0  0  0  0  0  0  0
  146.4650  154.7290  135.1520 C   0  0  0  0  0  0  0  0  0  0  0  0
  145.3280  155.0240  132.9640 N   0  0  0  0  0  0  0  0  0  0  0  0
  144.6890  154.3680  131.8190 C   0  0  0  0  0  0  0  0  0  0  0  0
  144.8310  156.3120  133.3550 C   0  0  0  0  0  0  0  0  0  0  0  0
  143.5010  156.4400  133.8210 C   0  0  0  0  0  0  0  0  0  0  0  0
  142.9810  157.6990  134.1660 C   0  0  0  0  0  0  0  0  0  0  0  0
  143.8160  158.8060  134.0360 C   0  0  0  0  0  0  0  0  0  0  0  0
  143.5620  160.1410  134.2590 C   0  0  0  0  0  0  0  0  0  0  0  0
  144.7500  160.7990  133.9440 C   0  0  0  0  0  0  0  0  0  0  0  0
  144.9450  162.2550  134.1040 C   0  0  0  0  0  0  0  0  0  0  0  0
  146.1160  162.7460  134.7550 N   0  0  0  0  0  0  0  0  0  0  0  0
  144.1020  163.0720  133.6460 O   0  0  0  0  0  0  0  0  0  0  0  0
  145.6980  159.9070  133.5390 N   0  0  0  0  0  0  0  0  0  0  0  0
  147.0210  160.1890  133.0620 C   0  0  0  0  0  0  0  0  0  0  0  0
  147.9360  160.4580  133.8860 O   0  0  0  0  0  0  0  0  0  0  0  0
  147.2830  160.1280  131.6860 O   0  0  0  0  0  0  0  0  0  0  0  0
  148.5770  160.1580  131.0630 C   0  0  0  0  0  0  0  0  0  0  0  0
  149.5690  159.2740  131.8400 C   0  0  0  0  0  0  0  0  0  0  0  0
  149.0680  161.6130  131.1040 C   0  0  0  0  0  0  0  0  0  0  0  0
  148.4840  159.7120  129.5900 C   0  0  0  0  0  0  0  0  0  0  0  0
  145.1120  158.6930  133.5980 C   0  0  0  0  0  0  0  0  0  0  0  0
  145.6470  157.4550  133.2270 C   0  0  0  0  0  0  0  0  0  0  0  0
  149.2512  151.9221  132.8780 H   0  0  0  0  0  0  0  0  0  0  0  0
  148.1962  152.6715  131.6321 H   0  0  0  0  0  0  0  0  0  0  0  0
  149.9615  153.0037  131.6321 H   0  0  0  0  0  0  0  0  0  0  0  0
  146.3708  153.3097  133.5696 H   0  0  0  0  0  0  0  0  0  0  0  0
  146.4793  153.7941  135.7314 H   0  0  0  0  0  0  0  0  0  0  0  0
  147.3541  155.3275  135.3996 H   0  0  0  0  0  0  0  0  0  0  0  0
  145.5580  155.3000  135.3996 H   0  0  0  0  0  0  0  0  0  0  0  0
  143.9641  153.6238  132.1804 H   0  0  0  0  0  0  0  0  0  0  0  0
  144.1684  155.1207  131.2088 H   0  0  0  0  0  0  0  0  0  0  0  0
  145.4551  153.8673  131.2088 H   0  0  0  0  0  0  0  0  0  0  0  0
  142.8680  155.5452  133.9141 H   0  0  0  0  0  0  0  0  0  0  0  0
  141.9476  157.8068  134.5272 H   0  0  0  0  0  0  0  0  0  0  0  0
  142.6223  160.5919  134.6106 H   0  0  0  0  0  0  0  0  0  0  0  0
  147.0480  162.3000  134.5960 H   0  0  0  0  0  0  0  0  0  0  0  0
  149.4145  159.4117  132.9203 H   0  0  0  0  0  0  0  0  0  0  0  0
  149.4032  158.2187  131.5775 H   0  0  0  0  0  0  0  0  0  0  0  0
  150.5983  159.5598  131.5775 H   0  0  0  0  0  0  0  0  0  0  0  0
  149.1763  161.9341  132.1505 H   0  0  0  0  0  0  0  0  0  0  0  0
  150.0406  161.6862  130.5954 H   0  0  0  0  0  0  0  0  0  0  0  0
  148.3386  162.2606  130.5954 H   0  0  0  0  0  0  0  0  0  0  0  0
  148.2596  158.6360  129.5461 H   0  0  0  0  0  0  0  0  0  0  0  0
  147.6838  160.2742  129.0865 H   0  0  0  0  0  0  0  0  0  0  0  0
  149.4422  159.9076  129.0865 H   0  0  0  0  0  0  0  0  0  0  0  0
  146.6758  157.3752  132.8459 H   0  0  0  0  0  0  0  0  0  0  0  0
  1  2  1  0
  2  3  1  0
  3  4  2  0
  3  5  1  0
  5  6  1  0
  5  7  1  0
  7  8  1  0
  7  9  1  0
  9 10  2  0
 10 11  1  0
 11 12  2  0
 12 13  1  0
 13 14  2  0
 14 15  1  0
 15 16  1  0
 15 17  2  0
 14 18  1  0
 18 19  1  0
 19 20  2  0
 19 21  1  0
 21 22  1  0
 22 23  1  0
 22 24  1  0
 22 25  1  0
 18 26  1  0
 26 27  2  0
 27  9  1  0
 26 12  1  0
  1 28  1  0
  1 29  1  0
  1 30  1  0
  5 31  1  1
  6 32  1  0
  6 33  1  0
  6 34  1  0
  8 35  1  0
  8 36  1  0
  8 37  1  0
 10 38  1  0
 11 39  1  0
 13 40  1  0
 16 41  1  0
 23 42  1  0
 23 43  1  0
 23 44  1  0
 24 45  1  0
 24 46  1  0
 24 47  1  0
 25 48  1  0
 25 49  1  0
 25 50  1  0
 27 51  1  0
M  CHG  1  16  -1
M  END
>  <UniqueID>  (8) 
8

>  <SMILES>  (8) 
COC(=O)[C@@H](C)N(C)c1ccc2cc(C([NH-])=O)n(C(=O)OC(C)(C)C)c2c1

>  <Energy>  (8) 
84.61757651397471

>  <Genealogy>  (8) 
COC(=O)C(C)N(C)c1ccc2cc(C([NH-])=O)n(C(=O)OC(C)(C)C)c2c1 (protonated)
COC(=O)[C@@H](C)N(C)c1ccc2cc(C([NH-])=O)n(C(=O)OC(C)(C)C)c2c1 (chirality)
COC(=O)[C@@H](C)N(C)c1ccc2cc(C([NH-])=O)n(C(=O)OC(C)(C)C)c2c1 (3D coordinates assigned)
COC(=O)[C@@H](C)N(C)c1ccc2cc(C([NH-])=O)n(C(=O)OC(C)(C)C)c2c1 (optimized conformer: 84.61757651397471 kcal/mol)

>  <smiles>  (8) 
COC(=O)C(C)N(C)c1ccc2cc(C(N)=O)n(C(=O)OC(C)(C)C)c2c1

>  <score_type>  (8) 
oracle

>  <origin>  (8) 
adg

>  <m_score__min__energy>  (8) 
-7.1100000000000003

>  <m_primary>  (8) 
energy

$$$$
8:0
     RDKit          3D

 41 42  0  0  0  0  0  0  0  0999 V2000
  138.5950  160.3070  130.6030 C   0  0  0  0  0  0  0  0  0  0  0  0
  137.7030  159.7370  131.5360 O   0  0  0  0  0  0  0  0  0  0  0  0
  138.3120  158.6420  132.1970 C   0  0  0  0  0  0  0  0  0  0  0  0
  139.8340  158.8150  132.2600 C   0  0  0  0  0  0  0  0  0  0  0  0
  140.3480  158.8260  133.7040 C   0  0  0  0  0  0  0  0  0  0  0  0
  141.7920  159.2510  133.7480 C   0  0  0  0  0  0  0  0  0  0  0  0
  142.1290  160.6270  133.7240 C   0  0  0  0  0  0  0  0  0  0  0  0
  143.4730  161.0340  133.7160 C   0  0  0  0  0  0  0  0  0  0  0  0
  144.4540  160.0460  133.7340 C   0  0  0  0  0  0  0  0  0  0  0  0
  145.8240  160.1620  133.6920 C   0  0  0  0  0  0  0  0  0  0  0  0
  146.3040  158.8560  133.7100 C   0  0  0  0  0  0  0  0  0  0  0  0
  147.7410  158.5200  133.7390 C   0  0  0  0  0  0  0  0  0  0  0  0
  148.2170  157.3710  134.4410 N   0  0  0  0  0  0  0  0  0  0  0  0
  148.5690  159.2900  133.1820 O   0  0  0  0  0  0  0  0  0  0  0  0
  145.2730  157.9640  133.7450 N   0  0  0  0  0  0  0  0  0  0  0  0
  145.3520  156.5320  133.6600 C   0  0  0  0  0  0  0  0  0  0  0  0
  145.0920  155.9510  132.5690 O   0  0  0  0  0  0  0  0  0  0  0  0
  145.7100  155.7850  134.7850 O   0  0  0  0  0  0  0  0  0  0  0  0
  146.3960  154.5420  134.6980 C   0  0  0  0  0  0  0  0  0  0  0  0
  147.2370  154.3610  135.9170 C   0  0  0  0  0  0  0  0  0  0  0  0
  148.0850  155.2350  136.2370 O   0  0  0  0  0  0  0  0  0  0  0  0
  147.0480  153.2520  136.7320 O   0  0  0  0  0  0  0  0  0  0  0  0
  144.1460  158.7100  133.7630 C   0  0  0  0  0  0  0  0  0  0  0  0
  142.8140  158.2760  133.7490 C   0  0  0  0  0  0  0  0  0  0  0  0
  139.4046  160.8244  131.1386 H   0  0  0  0  0  0  0  0  0  0  0  0
  139.0215  159.5137  129.9715 H   0  0  0  0  0  0  0  0  0  0  0  0
  138.0543  161.0273  129.9715 H   0  0  0  0  0  0  0  0  0  0  0  0
  137.9151  158.5740  133.2207 H   0  0  0  0  0  0  0  0  0  0  0  0
  138.0869  157.7240  131.6343 H   0  0  0  0  0  0  0  0  0  0  0  0
  140.3093  157.9831  131.7195 H   0  0  0  0  0  0  0  0  0  0  0  0
  140.0868  159.7819  131.8004 H   0  0  0  0  0  0  0  0  0  0  0  0
  139.7455  159.5298  134.2971 H   0  0  0  0  0  0  0  0  0  0  0  0
  140.2638  157.8107  134.1187 H   0  0  0  0  0  0  0  0  0  0  0  0
  141.3305  161.3835  133.7115 H   0  0  0  0  0  0  0  0  0  0  0  0
  143.7425  162.1003  133.6961 H   0  0  0  0  0  0  0  0  0  0  0  0
  146.4143  161.0894  133.6526 H   0  0  0  0  0  0  0  0  0  0  0  0
  149.2320  157.1260  134.4160 H   0  0  0  0  0  0  0  0  0  0  0  0
  147.5840  156.8090  135.0510 H   0  0  0  0  0  0  0  0  0  0  0  0
  145.6656  153.7224  134.6296 H   0  0  0  0  0  0  0  0  0  0  0  0
  147.0352  154.5338  133.8028 H   0  0  0  0  0  0  0  0  0  0  0  0
  142.5703  157.2034  133.7390 H   0  0  0  0  0  0  0  0  0  0  0  0
  1  2  1  0
  2  3  1  0
  3  4  1  0
  4  5  1  0
  5  6  1  0
  6  7  2  0
  7  8  1  0
  8  9  2  0
  9 10  1  0
 10 11  2  0
 11 12  1  0
 12 13  1  0
 12 14  2  0
 11 15  1  0
 15 16  1  0
 16 17  2  0
 16 18  1  0
 18 19  1  0
 19 20  1  0
 20 21  2  0
 20 22  1  0
 15 23  1  0
 23 24  2  0
 24  6  1  0
 23  9  1  0
  1 25  1  0
  1 26  1  0
  1 27  1  0
  3 28  1  0
  3 29  1  0
  4 30  1  0
  4 31  1  0
  5 32  1  0
  5 33  1  0
  7 34  1  0
  8 35  1  0
 10 36  1  0
 13 37  1  0
 13 38  1  0
 19 39  1  0
 19 40  1  0
 24 41  1  0
M  CHG  1  22  -1
M  END
>  <UniqueID>  (9) 
9

>  <SMILES>  (9) 
COCCCc1ccc2cc(C(N)=O)n(C(=O)OCC(=O)[O-])c2c1

>  <Energy>  (9) 
74.50066729194863

>  <Genealogy>  (9) 
COCCCc1ccc2cc(C(N)=O)n(C(=O)OCC(=O)[O-])c2c1 (protonated)
COCCCc1ccc2cc(C(N)=O)n(C(=O)OCC(=O)[O-])c2c1 (3D coordinates assigned)
COCCCc1ccc2cc(C(N)=O)n(C(=O)OCC(=O)[O-])c2c1 (optimized conformer: 74.50066729194863 kcal/mol)

>  <smiles>  (9) 
COCCCc1ccc2cc(C(N)=O)n(C(=O)OCC(=O)O)c2c1

>  <score_type>  (9) 
oracle

>  <origin>  (9) 
adg

>  <m_score__min__energy>  (9) 
-6.7599999999999998

>  <m_primary>  (9) 
energy

$$$$
9:0
     RDKit          3D

 33 34  0  0  0  0  0  0  0  0999 V2000
  145.9420  160.4760  132.9280 N   0  0  0  0  0  0  0  0  0  0  0  0
  145.2540  159.3760  133.5250 C   0  0  0  0  0  0  0  0  0  0  0  0
  144.1530  159.5810  134.1010 O   0  0  0  0  0  0  0  0  0  0  0  0
  145.8410  158.0170  133.5020 C   0  0  0  0  0  0  0  0  0  0  0  0
  145.1450  156.8650  133.8620 C   0  0  0  0  0  0  0  0  0  0  0  0
  146.0080  155.8250  133.6070 C   0  0  0  0  0  0  0  0  0  0  0  0
  145.8320  154.4550  133.7800 C   0  0  0  0  0  0  0  0  0  0  0  0
  146.9020  153.6060  133.4520 C   0  0  0  0  0  0  0  0  0  0  0  0
  148.1310  154.1370  132.9840 C   0  0  0  0  0  0  0  0  0  0  0  0
  149.2590  153.2120  132.6010 C   0  0  0  0  0  0  0  0  0  0  0  0
  150.3580  153.9650  132.2300 F   0  0  0  0  0  0  0  0  0  0  0  0
  149.6090  152.4000  133.6650 F   0  0  0  0  0  0  0  0  0  0  0  0
  148.8890  152.4020  131.5410 F   0  0  0  0  0  0  0  0  0  0  0  0
  148.2620  155.5330  132.7980 C   0  0  0  0  0  0  0  0  0  0  0  0
  147.1730  156.3540  133.1160 C   0  0  0  0  0  0  0  0  0  0  0  0
  147.0850  157.7010  133.0430 N   0  0  0  0  0  0  0  0  0  0  0  0
  148.1250  158.6110  132.6480 C   0  0  0  0  0  0  0  0  0  0  0  0
  148.9300  159.0630  133.5070 O   0  0  0  0  0  0  0  0  0  0  0  0
  148.2340  159.0000  131.3090 O   0  0  0  0  0  0  0  0  0  0  0  0
  149.4470  159.4840  130.7440 C   0  0  0  0  0  0  0  0  0  0  0  0
  149.4280  161.0060  130.7120 C   0  0  0  0  0  0  0  0  0  0  0  0
  148.4850  161.4870  131.6270 O   0  0  0  0  0  0  0  0  0  0  0  0
  145.5380  161.4380  132.9820 H   0  0  0  0  0  0  0  0  0  0  0  0
  146.8290  160.3380  132.3960 H   0  0  0  0  0  0  0  0  0  0  0  0
  144.1232  156.8010  134.2644 H   0  0  0  0  0  0  0  0  0  0  0  0
  144.8836  154.0494  134.1621 H   0  0  0  0  0  0  0  0  0  0  0  0
  146.7854  152.5175  133.5593 H   0  0  0  0  0  0  0  0  0  0  0  0
  149.1978  155.9639  132.4124 H   0  0  0  0  0  0  0  0  0  0  0  0
  150.2962  159.1419  131.3537 H   0  0  0  0  0  0  0  0  0  0  0  0
  149.5494  159.0998  129.7184 H   0  0  0  0  0  0  0  0  0  0  0  0
  150.4240  161.3894  130.9783 H   0  0  0  0  0  0  0  0  0  0  0  0
  149.1589  161.3449  129.7007 H   0  0  0  0  0  0  0  0  0  0  0  0
  148.4870  160.8480  132.3860 H   0  0  0  0  0  0  0  0  0  0  0  0
  1  2  1  0
  2  3  2  0
  2  4  1  0
  4  5  2  0
  5  6  1  0
  6  7  2  0
  7  8  1  0
  8  9  2  0
  9 10  1  0
 10 11  1  0
 10 12  1  0
 10 13  1  0
  9 14  1  0
 14 15  2  0
 15 16  1  0
 16 17  1  0
 17 18  2  0
 17 19  1  0
 19 20  1  0
 20 21  1  0
 21 22  1  0
 16  4  1  0
 15  6  1  0
  1 23  1  0
  1 24  1  0
  5 25  1  0
  7 26  1  0
  8 27  1  0
 14 28  1  0
 20 29  1  0
 20 30  1  0
 21 31  1  0
 21 32  1  0
 22 33  1  0
M  END
>  <UniqueID>  (10) 
10

>  <SMILES>  (10) 
NC(=O)c1cc2ccc(C(F)(F)F)cc2n1C(=O)OCCO

>  <Energy>  (10) 
67.27849835378615

>  <Genealogy>  (10) 
NC(=O)c1cc2ccc(C(F)(F)F)cc2n1C(=O)OCCO (3D coordinates assigned)
NC(=O)c1cc2ccc(C(F)(F)F)cc2n1C(=O)OCCO (optimized conformer: 67.27849835378615 kcal/mol)

>  <smiles>  (10) 
NC(=O)c1cc2ccc(C(F)(F)F)cc2n1C(=O)OCCO

>  <score_type>  (10) 
oracle

>  <origin>  (10) 
adg

>  <m_score__min__energy>  (10) 
-5.4299999999999997

>  <m_primary>  (10) 
energy

$$$$
10:0
     RDKit          3D

 32 33  0  0  0  0  0  0  0  0999 V2000
  140.9190  159.2920  136.6960 C   0  0  0  0  0  0  0  0  0  0  0  0
  141.9280  158.9420  135.8940 C   0  0  0  0  0  0  0  0  0  0  0  0
  142.1080  157.5250  135.4410 C   0  0  0  0  0  0  0  0  0  0  0  0
  143.3840  157.3810  134.8250 O   0  0  0  0  0  0  0  0  0  0  0  0
  143.7110  157.9850  133.6080 C   0  0  0  0  0  0  0  0  0  0  0  0
  142.9160  157.9180  132.6300 O   0  0  0  0  0  0  0  0  0  0  0  0
  144.9430  158.7120  133.4840 N   0  0  0  0  0  0  0  0  0  0  0  0
  145.1400  160.0570  133.5930 C   0  0  0  0  0  0  0  0  0  0  0  0
  144.0840  161.0840  133.7110 C   0  0  0  0  0  0  0  0  0  0  0  0
  142.7330  160.7920  133.3620 N   0  0  0  0  0  0  0  0  0  0  0  0
  144.3870  162.2510  134.0770 O   0  0  0  0  0  0  0  0  0  0  0  0
  146.4960  160.3610  133.4960 C   0  0  0  0  0  0  0  0  0  0  0  0
  147.1290  159.1540  133.3100 C   0  0  0  0  0  0  0  0  0  0  0  0
  148.4830  158.8660  133.1710 C   0  0  0  0  0  0  0  0  0  0  0  0
  148.8590  157.5200  133.0280 C   0  0  0  0  0  0  0  0  0  0  0  0
  147.8820  156.4900  133.0150 C   0  0  0  0  0  0  0  0  0  0  0  0
  148.3020  155.0450  132.9230 C   0  0  0  0  0  0  0  0  0  0  0  0
  149.5060  154.9280  132.2500 F   0  0  0  0  0  0  0  0  0  0  0  0
  148.4580  154.5010  134.1850 F   0  0  0  0  0  0  0  0  0  0  0  0
  147.3330  154.3330  132.2410 F   0  0  0  0  0  0  0  0  0  0  0  0
  146.5180  156.8230  133.1860 C   0  0  0  0  0  0  0  0  0  0  0  0
  146.1700  158.1740  133.3060 C   0  0  0  0  0  0  0  0  0  0  0  0
  140.8078  160.3388  137.0151 H   0  0  0  0  0  0  0  0  0  0  0  0
  140.1992  158.5335  137.0374 H   0  0  0  0  0  0  0  0  0  0  0  0
  142.6414  159.7095  135.5592 H   0  0  0  0  0  0  0  0  0  0  0  0
  142.0417  156.8517  136.3083 H   0  0  0  0  0  0  0  0  0  0  0  0
  141.3207  157.2692  134.7166 H   0  0  0  0  0  0  0  0  0  0  0  0
  142.5090  160.0660  132.6460 H   0  0  0  0  0  0  0  0  0  0  0  0
  146.9619  161.3557  133.5555 H   0  0  0  0  0  0  0  0  0  0  0  0
  149.2361  159.6677  133.1730 H   0  0  0  0  0  0  0  0  0  0  0  0
  149.9231  157.2610  132.9249 H   0  0  0  0  0  0  0  0  0  0  0  0
  145.7480  156.0384  133.2239 H   0  0  0  0  0  0  0  0  0  0  0  0
  1  2  2  0
  2  3  1  0
  3  4  1  0
  4  5  1  0
  5  6  2  0
  5  7  1  0
  7  8  1  0
  8  9  1  0
  9 10  1  0
  9 11  2  0
  8 12  2  0
 12 13  1  0
 13 14  2  0
 14 15  1  0
 15 16  2  0
 16 17  1  0
 17 18  1  0
 17 19  1  0
 17 20  1  0
 16 21  1  0
 21 22  2  0
 22  7  1  0
 22 13  1  0
  1 23  1  0
  1 24  1  0
  2 25  1  0
  3 26  1  0
  3 27  1  0
 10 28  1  0
 12 29  1  0
 14 30  1  0
 15 31  1  0
 21 32  1  0
M  CHG  1  10  -1
M  END
>  <UniqueID>  (11) 
11

>  <SMILES>  (11) 
C=CCOC(=O)n1c(C([NH-])=O)cc2ccc(C(F)(F)F)cc21

>  <Energy>  (11) 
66.66391159296137

>  <Genealogy>  (11) 
C=CCOC(=O)n1c(C([NH-])=O)cc2ccc(C(F)(F)F)cc21 (protonated)
C=CCOC(=O)n1c(C([NH-])=O)cc2ccc(C(F)(F)F)cc21 (3D coordinates assigned)
C=CCOC(=O)n1c(C([NH-])=O)cc2ccc(C(F)(F)F)cc21 (optimized conformer: 66.66391159296137 kcal/mol)

>  <smiles>  (11) 
C=CCOC(=O)n1c(C(N)=O)cc2ccc(C(F)(F)F)cc21

>  <score_type>  (11) 
oracle

>  <origin>  (11) 
adg

>  <m_score__min__energy>  (11) 
-5.7800000000000002

>  <m_primary>  (11) 
energy

$$$$
11:0
     RDKit          3D

 37 38  0  0  0  0  0  0  0  0999 V2000
  140.5350  157.3010  133.0470 C   0  0  0  0  0  0  0  0  0  0  0  0
  140.5660  158.7410  133.5510 C   0  0  0  0  0  0  0  0  0  0  0  0
  139.7820  159.5280  132.7230 F   0  0  0  0  0  0  0  0  0  0  0  0
  140.0180  158.7870  134.8230 F   0  0  0  0  0  0  0  0  0  0  0  0
  141.9870  159.2590  133.5700 C   0  0  0  0  0  0  0  0  0  0  0  0
  142.2430  160.6460  133.7300 C   0  0  0  0  0  0  0  0  0  0  0  0
  143.5600  161.1320  133.7810 C   0  0  0  0  0  0  0  0  0  0  0  0
  144.5990  160.2120  133.6950 C   0  0  0  0  0  0  0  0  0  0  0  0
  145.9600  160.4130  133.7090 C   0  0  0  0  0  0  0  0  0  0  0  0
  146.5230  159.1430  133.6030 C   0  0  0  0  0  0  0  0  0  0  0  0
  147.9770  158.8770  133.6740 C   0  0  0  0  0  0  0  0  0  0  0  0
  148.4660  157.6280  134.1650 N   0  0  0  0  0  0  0  0  0  0  0  0
  148.7990  159.7420  133.2720 O   0  0  0  0  0  0  0  0  0  0  0  0
  145.5470  158.1940  133.5250 N   0  0  0  0  0  0  0  0  0  0  0  0
  145.7110  156.7740  133.3610 C   0  0  0  0  0  0  0  0  0  0  0  0
  146.7250  156.3210  132.7630 O   0  0  0  0  0  0  0  0  0  0  0  0
  144.7360  155.9020  133.8520 O   0  0  0  0  0  0  0  0  0  0  0  0
  144.8300  155.2770  135.1270 C   0  0  0  0  0  0  0  0  0  0  0  0
  145.6980  154.0280  135.0130 C   0  0  0  0  0  0  0  0  0  0  0  0
  146.8750  154.1180  135.9310 C   0  0  0  0  0  0  0  0  0  0  0  0
  147.1070  153.1970  136.7560 O   0  0  0  0  0  0  0  0  0  0  0  0
  147.6910  155.2420  135.9060 O   0  0  0  0  0  0  0  0  0  0  0  0
  144.3750  158.8650  133.5820 C   0  0  0  0  0  0  0  0  0  0  0  0
  143.0730  158.3540  133.5060 C   0  0  0  0  0  0  0  0  0  0  0  0
  140.5202  156.6125  133.9048 H   0  0  0  0  0  0  0  0  0  0  0  0
  139.6333  157.1455  132.4364 H   0  0  0  0  0  0  0  0  0  0  0  0
  141.4292  157.1069  132.4364 H   0  0  0  0  0  0  0  0  0  0  0  0
  141.4006  161.3482  133.8150 H   0  0  0  0  0  0  0  0  0  0  0  0
  143.7632  162.2080  133.8858 H   0  0  0  0  0  0  0  0  0  0  0  0
  146.4912  161.3731  133.7873 H   0  0  0  0  0  0  0  0  0  0  0  0
  147.8210  156.9050  134.5510 H   0  0  0  0  0  0  0  0  0  0  0  0
  149.4930  157.4360  134.1780 H   0  0  0  0  0  0  0  0  0  0  0  0
  145.2833  155.9752  135.8460 H   0  0  0  0  0  0  0  0  0  0  0  0
  143.8249  154.9969  135.4752 H   0  0  0  0  0  0  0  0  0  0  0  0
  145.0981  153.1455  135.2801 H   0  0  0  0  0  0  0  0  0  0  0  0
  146.0616  153.9427  133.9783 H   0  0  0  0  0  0  0  0  0  0  0  0
  142.8986  157.2732  133.3989 H   0  0  0  0  0  0  0  0  0  0  0  0
  1  2  1  0
  2  3  1  0
  2  4  1  0
  2  5  1  0
  5  6  2  0
  6  7  1  0
  7  8  2  0
  8  9  1  0
  9 10  2  0
 10 11  1  0
 11 12  1  0
 11 13  2  0
 10 14  1  0
 14 15  1  0
 15 16  2  0
 15 17  1  0
 17 18  1  0
 18 19  1  0
 19 20  1  0
 20 21  2  0
 20 22  1  0
 14 23  1  0
 23 24  2  0
 24  5  1  0
 23  8  1  0
  1 25  1  0
  1 26  1  0
  1 27  1  0
  6 28  1  0
  7 29  1  0
  9 30  1  0
 12 31  1  0
 12 32  1  0
 18 33  1  0
 18 34  1  0
 19 35  1  0
 19 36  1  0
 24 37  1  0
M  CHG  1  22  -1
M  END
>  <UniqueID>  (12) 
12

>  <SMILES>  (12) 
CC(F)(F)c1ccc2cc(C(N)=O)n(C(=O)OCCC(=O)[O-])c2c1

>  <Energy>  (12) 
68.28970177693687

>  <Genealogy>  (12) 
CC(F)(F)c1ccc2cc(C(N)=O)n(C(=O)OCCC(=O)[O-])c2c1 (protonated)
CC(F)(F)c1ccc2cc(C(N)=O)n(C(=O)OCCC(=O)[O-])c2c1 (3D coordinates assigned)
CC(F)(F)c1ccc2cc(C(N)=O)n(C(=O)OCCC(=O)[O-])c2c1 (optimized conformer: 68.28970177693687 kcal/mol)

>  <smiles>  (12) 
CC(F)(F)c1ccc2cc(C(N)=O)n(C(=O)OCCC(=O)O)c2c1

>  <score_type>  (12) 
oracle

>  <origin>  (12) 
adg

>  <m_score__min__energy>  (12) 
-6.9000000000000004

>  <m_primary>  (12) 
energy

$$$$
12:0
     RDKit          3D

 40 42  0  0  0  0  0  0  0  0999 V2000
  147.4640  154.7780  132.8810 N   0  0  0  0  0  0  0  0  0  0  0  0
  146.5540  154.6480  133.9760 C   0  0  0  0  0  0  0  0  0  0  0  0
  146.8900  155.0880  135.1080 O   0  0  0  0  0  0  0  0  0  0  0  0
  145.2500  153.9730  133.7980 C   0  0  0  0  0  0  0  0  0  0  0  0
  144.0340  154.5130  134.2120 C   0  0  0  0  0  0  0  0  0  0  0  0
  143.0750  153.6280  133.7750 C   0  0  0  0  0  0  0  0  0  0  0  0
  141.6920  153.6670  133.9190 C   0  0  0  0  0  0  0  0  0  0  0  0
  140.9430  152.6050  133.3870 C   0  0  0  0  0  0  0  0  0  0  0  0
  141.5830  151.5220  132.7300 C   0  0  0  0  0  0  0  0  0  0  0  0
  140.7810  150.3980  132.1810 C   0  0  0  0  0  0  0  0  0  0  0  0
  139.4070  150.5360  131.9310 C   0  0  0  0  0  0  0  0  0  0  0  0
  138.6960  149.4950  131.4300 N   0  0  0  0  0  0  0  0  0  0  0  0
  139.2910  148.3030  131.1620 C   0  0  0  0  0  0  0  0  0  0  0  0
  138.5220  147.2240  130.6370 N   0  0  0  0  0  0  0  0  0  0  0  0
  140.6190  148.1430  131.3950 N   0  0  0  0  0  0  0  0  0  0  0  0
  141.3710  149.1570  131.8930 C   0  0  0  0  0  0  0  0  0  0  0  0
  142.9920  151.5210  132.6050 C   0  0  0  0  0  0  0  0  0  0  0  0
  143.7120  152.6020  133.1280 C   0  0  0  0  0  0  0  0  0  0  0  0
  145.0500  152.7990  133.1320 N   0  0  0  0  0  0  0  0  0  0  0  0
  146.0450  151.9100  132.5990 C   0  0  0  0  0  0  0  0  0  0  0  0
  145.7480  150.7110  132.3440 O   0  0  0  0  0  0  0  0  0  0  0  0
  147.3370  152.3830  132.3500 O   0  0  0  0  0  0  0  0  0  0  0  0
  148.4990  151.5800  132.5280 C   0  0  0  0  0  0  0  0  0  0  0  0
  149.7400  152.4470  132.3780 C   0  0  0  0  0  0  0  0  0  0  0  0
  149.3810  153.6900  131.8400 O   0  0  0  0  0  0  0  0  0  0  0  0
  147.2010  154.4750  131.9180 H   0  0  0  0  0  0  0  0  0  0  0  0
  148.3980  155.2220  133.0290 H   0  0  0  0  0  0  0  0  0  0  0  0
  143.8745  155.4478  134.7695 H   0  0  0  0  0  0  0  0  0  0  0  0
  141.1997  154.5049  134.4343 H   0  0  0  0  0  0  0  0  0  0  0  0
  139.8470  152.6126  133.4806 H   0  0  0  0  0  0  0  0  0  0  0  0
  138.9048  151.4916  132.1420 H   0  0  0  0  0  0  0  0  0  0  0  0
  137.6070  146.9670  131.0690 H   0  0  0  0  0  0  0  0  0  0  0  0
  138.8670  146.6800  129.8150 H   0  0  0  0  0  0  0  0  0  0  0  0
  142.4459  149.0061  132.0715 H   0  0  0  0  0  0  0  0  0  0  0  0
  143.5111  150.6885  132.1074 H   0  0  0  0  0  0  0  0  0  0  0  0
  148.4843  151.1307  133.5319 H   0  0  0  0  0  0  0  0  0  0  0  0
  148.5141  150.7825  131.7705 H   0  0  0  0  0  0  0  0  0  0  0  0
  150.2049  152.5950  133.3639 H   0  0  0  0  0  0  0  0  0  0  0  0
  150.4547  151.9499  131.7056 H   0  0  0  0  0  0  0  0  0  0  0  0
  148.4660  153.5770  131.4750 H   0  0  0  0  0  0  0  0  0  0  0  0
  1  2  1  0
  2  3  2  0
  2  4  1  0
  4  5  2  0
  5  6  1  0
  6  7  2  0
  7  8  1  0
  8  9  2  0
  9 10  1  0
 10 11  2  0
 11 12  1  0
 12 13  2  0
 13 14  1  0
 13 15  1  0
 15 16  2  0
  9 17  1  0
 17 18  2  0
 18 19  1  0
 19 20  1  0
 20 21  2  0
 20 22  1  0
 22 23  1  0
 23 24  1  0
 24 25  1  0
 19  4  1  0
 18  6  1  0
 16 10  1  0
  1 26  1  0
  1 27  1  0
  5 28  1  0
  7 29  1  0
  8 30  1  0
 11 31  1  0
 14 32  1  0
 14 33  1  0
 16 34  1  0
 17 35  1  0
 23 36  1  0
 23 37  1  0
 24 38  1  0
 24 39  1  0
 25 40  1  0
M  END
>  <UniqueID>  (13) 
13

>  <SMILES>  (13) 
NC(=O)c1cc2ccc(-c3cnc(N)nc3)cc2n1C(=O)OCCO

>  <Energy>  (13) 
80.5844431017833

>  <Genealogy>  (13) 
NC(=O)c1cc2ccc(-c3cnc(N)nc3)cc2n1C(=O)OCCO (3D coordinates assigned)
NC(=O)c1cc2ccc(-c3cnc(N)nc3)cc2n1C(=O)OCCO (optimized conformer: 80.5844431017833 kcal/mol)

>  <smiles>  (13) 
NC(=O)c1cc2ccc(-c3cnc(N)nc3)cc2n1C(=O)OCCO

>  <score_type>  (13) 
oracle

>  <origin>  (13) 
adg

>  <m_score__min__energy>  (13) 
-6.6399999999999997

>  <m_primary>  (13) 
energy

$$$$
13:0
     RDKit          3D

 46 47  0  0  0  0  0  0  0  0999 V2000
  149.2880  160.0980  129.7690 C   0  0  0  0  0  0  0  0  0  0  0  0
  148.8410  160.2420  131.1460 N   0  0  0  0  0  0  0  0  0  0  0  0
  148.8280  159.1480  132.0730 C   0  0  0  0  0  0  0  0  0  0  0  0
  149.5900  158.1580  131.8810 O   0  0  0  0  0  0  0  0  0  0  0  0
  147.9350  159.1760  133.3040 C   0  0  0  0  0  0  0  0  0  0  0  0
  147.1950  160.5270  133.4170 C   0  0  0  0  0  0  0  0  0  0  0  0
  148.8580  159.0300  134.5320 C   0  0  0  0  0  0  0  0  0  0  0  0
  146.8830  158.0580  133.1960 C   0  0  0  0  0  0  0  0  0  0  0  0
  145.4850  158.3190  133.0940 C   0  0  0  0  0  0  0  0  0  0  0  0
  144.5590  157.2710  132.9830 C   0  0  0  0  0  0  0  0  0  0  0  0
  145.0410  155.9690  132.9560 C   0  0  0  0  0  0  0  0  0  0  0  0
  144.3620  154.7760  132.8740 C   0  0  0  0  0  0  0  0  0  0  0  0
  145.3460  153.7900  132.8890 C   0  0  0  0  0  0  0  0  0  0  0  0
  145.0690  152.3460  132.7310 C   0  0  0  0  0  0  0  0  0  0  0  0
  145.9580  151.5130  131.9860 N   0  0  0  0  0  0  0  0  0  0  0  0
  144.0560  151.8300  133.2750 O   0  0  0  0  0  0  0  0  0  0  0  0
  146.5840  154.3530  132.9810 N   0  0  0  0  0  0  0  0  0  0  0  0
  147.8580  153.6880  133.0740 C   0  0  0  0  0  0  0  0  0  0  0  0
  148.4140  153.5390  134.1980 O   0  0  0  0  0  0  0  0  0  0  0  0
  148.4680  153.2000  131.9170 O   0  0  0  0  0  0  0  0  0  0  0  0
  149.7890  152.6650  131.9000 C   0  0  0  0  0  0  0  0  0  0  0  0
  149.8240  151.3540  132.6800 C   0  0  0  0  0  0  0  0  0  0  0  0
  149.1990  150.2450  131.8920 C   0  0  0  0  0  0  0  0  0  0  0  0
  147.9500  150.0930  131.8980 O   0  0  0  0  0  0  0  0  0  0  0  0
  149.9910  149.3940  131.1310 O   0  0  0  0  0  0  0  0  0  0  0  0
  146.3770  155.6880  133.0210 C   0  0  0  0  0  0  0  0  0  0  0  0
  147.3220  156.7090  133.1540 C   0  0  0  0  0  0  0  0  0  0  0  0
  150.3349  159.7607  129.7567 H   0  0  0  0  0  0  0  0  0  0  0  0
  148.6581  159.3573  129.2546 H   0  0  0  0  0  0  0  0  0  0  0  0
  149.2089  161.0671  129.2546 H   0  0  0  0  0  0  0  0  0  0  0  0
  147.0558  160.7812  134.4781 H   0  0  0  0  0  0  0  0  0  0  0  0
  147.7888  161.3125  132.9267 H   0  0  0  0  0  0  0  0  0  0  0  0
  146.2134  160.4495  132.9267 H   0  0  0  0  0  0  0  0  0  0  0  0
  148.2621  159.1242  135.4518 H   0  0  0  0  0  0  0  0  0  0  0  0
  149.3446  158.0437  134.5098 H   0  0  0  0  0  0  0  0  0  0  0  0
  149.6252  159.8180  134.5098 H   0  0  0  0  0  0  0  0  0  0  0  0
  145.1267  159.3590  133.1025 H   0  0  0  0  0  0  0  0  0  0  0  0
  143.4800  157.4752  132.9191 H   0  0  0  0  0  0  0  0  0  0  0  0
  143.2735  154.6311  132.8101 H   0  0  0  0  0  0  0  0  0  0  0  0
  146.7770  151.9150  131.4810 H   0  0  0  0  0  0  0  0  0  0  0  0
  145.7910  150.4830  131.9290 H   0  0  0  0  0  0  0  0  0  0  0  0
  150.0949  152.4796  130.8598 H   0  0  0  0  0  0  0  0  0  0  0  0
  150.4789  153.3841  132.3658 H   0  0  0  0  0  0  0  0  0  0  0  0
  150.8699  151.0940  132.9001 H   0  0  0  0  0  0  0  0  0  0  0  0
  149.2556  151.4853  133.6125 H   0  0  0  0  0  0  0  0  0  0  0  0
  148.3933  156.4699  133.2253 H   0  0  0  0  0  0  0  0  0  0  0  0
  1  2  1  0
  2  3  1  0
  3  4  2  0
  3  5  1  0
  5  6  1  0
  5  7  1  0
  5  8  1  0
  8  9  2  0
  9 10  1  0
 10 11  2  0
 11 12  1  0
 12 13  2  0
 13 14  1  0
 14 15  1  0
 14 16  2  0
 13 17  1  0
 17 18  1  0
 18 19  2  0
 18 20  1  0
 20 21  1  0
 21 22  1  0
 22 23  1  0
 23 24  2  0
 23 25  1  0
 17 26  1  0
 26 27  2  0
 27  8  1  0
 26 11  1  0
  1 28  1  0
  1 29  1  0
  1 30  1  0
  6 31  1  0
  6 32  1  0
  6 33  1  0
  7 34  1  0
  7 35  1  0
  7 36  1  0
  9 37  1  0
 10 38  1  0
 12 39  1  0
 15 40  1  0
 15 41  1  0
 21 42  1  0
 21 43  1  0
 22 44  1  0
 22 45  1  0
 27 46  1  0
M  CHG  2   2  -1  25  -1
M  END
>  <UniqueID>  (14) 
14

>  <SMILES>  (14) 
C[N-]C(=O)C(C)(C)c1ccc2cc(C(N)=O)n(C(=O)OCCC(=O)[O-])c2c1

>  <Energy>  (14) 
79.08882008487437

>  <Genealogy>  (14) 
C[N-]C(=O)C(C)(C)c1ccc2cc(C(N)=O)n(C(=O)OCCC(=O)[O-])c2c1 (protonated)
C[N-]C(=O)C(C)(C)c1ccc2cc(C(N)=O)n(C(=O)OCCC(=O)[O-])c2c1 (3D coordinates assigned)
C[N-]C(=O)C(C)(C)c1ccc2cc(C(N)=O)n(C(=O)OCCC(=O)[O-])c2c1 (optimized conformer: 79.08882008487437 kcal/mol)

>  <smiles>  (14) 
CNC(=O)C(C)(C)c1ccc2cc(C(N)=O)n(C(=O)OCCC(=O)O)c2c1

>  <score_type>  (14) 
oracle

>  <origin>  (14) 
adg

>  <m_score__min__energy>  (14) 
-7.8700000000000001

>  <m_primary>  (14) 
energy

$$$$
14:0
     RDKit          3D

 48 50  0  0  0  0  0  0  0  0999 V2000
  150.4540  150.3550  130.5800 C   0  0  0  0  0  0  0  0  0  0  0  0
  149.5680  151.3520  131.0760 O   0  0  0  0  0  0  0  0  0  0  0  0
  148.5160  151.0580  131.9510 C   0  0  0  0  0  0  0  0  0  0  0  0
  147.9120  149.9500  131.8690 O   0  0  0  0  0  0  0  0  0  0  0  0
  148.1440  152.0160  132.9640 N   0  0  0  0  0  0  0  0  0  0  0  0
  149.2400  153.0000  133.1980 C   0  0  0  0  0  0  0  0  0  0  0  0
  148.9700  154.3680  132.5570 C   0  0  0  0  0  0  0  0  0  0  0  0
  147.6780  154.8940  133.0210 N   0  0  0  0  0  0  0  0  0  0  0  0
  147.4510  156.3180  133.1110 C   0  0  0  0  0  0  0  0  0  0  0  0
  148.5350  157.2270  132.9820 C   0  0  0  0  0  0  0  0  0  0  0  0
  148.3260  158.6140  133.0570 C   0  0  0  0  0  0  0  0  0  0  0  0
  147.0300  159.0670  133.2700 C   0  0  0  0  0  0  0  0  0  0  0  0
  146.5430  160.3520  133.3560 C   0  0  0  0  0  0  0  0  0  0  0  0
  145.1720  160.2160  133.5620 C   0  0  0  0  0  0  0  0  0  0  0  0
  144.2660  161.3600  133.7940 C   0  0  0  0  0  0  0  0  0  0  0  0
  142.8530  161.2100  133.6880 N   0  0  0  0  0  0  0  0  0  0  0  0
  144.7440  162.4750  134.1360 O   0  0  0  0  0  0  0  0  0  0  0  0
  144.8240  158.8990  133.5950 N   0  0  0  0  0  0  0  0  0  0  0  0
  143.5030  158.3430  133.6870 C   0  0  0  0  0  0  0  0  0  0  0  0
  142.8010  158.2150  132.6480 O   0  0  0  0  0  0  0  0  0  0  0  0
  142.9950  157.9680  134.9350 O   0  0  0  0  0  0  0  0  0  0  0  0
  142.1140  158.7870  135.7000 C   0  0  0  0  0  0  0  0  0  0  0  0
  140.7380  158.7610  135.1150 C   0  0  0  0  0  0  0  0  0  0  0  0
  139.8110  158.1430  135.7000 O   0  0  0  0  0  0  0  0  0  0  0  0
  140.4810  159.4180  133.9200 O   0  0  0  0  0  0  0  0  0  0  0  0
  145.9720  158.2090  133.4170 C   0  0  0  0  0  0  0  0  0  0  0  0
  146.1470  156.8240  133.3290 C   0  0  0  0  0  0  0  0  0  0  0  0
  146.6030  153.9480  133.3470 C   0  0  0  0  0  0  0  0  0  0  0  0
  146.8320  152.6180  132.6200 C   0  0  0  0  0  0  0  0  0  0  0  0
  150.9224  149.8279  131.4243 H   0  0  0  0  0  0  0  0  0  0  0  0
  149.8909  149.6366  129.9662 H   0  0  0  0  0  0  0  0  0  0  0  0
  151.2336  150.8298  129.9662 H   0  0  0  0  0  0  0  0  0  0  0  0
  148.0150  151.4830  133.8570 H   0  0  0  0  0  0  0  0  0  0  0  0
  149.3593  153.1393  134.2826 H   0  0  0  0  0  0  0  0  0  0  0  0
  150.1496  152.5938  132.7316 H   0  0  0  0  0  0  0  0  0  0  0  0
  149.7708  155.0672  132.8397 H   0  0  0  0  0  0  0  0  0  0  0  0
  148.9423  154.2553  131.4631 H   0  0  0  0  0  0  0  0  0  0  0  0
  149.5518  156.8395  132.8212 H   0  0  0  0  0  0  0  0  0  0  0  0
  149.1629  159.3199  132.9504 H   0  0  0  0  0  0  0  0  0  0  0  0
  147.1155  161.2881  133.2784 H   0  0  0  0  0  0  0  0  0  0  0  0
  142.4250  160.2820  133.4800 H   0  0  0  0  0  0  0  0  0  0  0  0
  142.0757  158.4115  136.7332 H   0  0  0  0  0  0  0  0  0  0  0  0
  142.4875  159.8216  135.6873 H   0  0  0  0  0  0  0  0  0  0  0  0
  145.2893  156.1423  133.4271 H   0  0  0  0  0  0  0  0  0  0  0  0
  146.5907  153.7716  134.4327 H   0  0  0  0  0  0  0  0  0  0  0  0
  145.6405  154.3726  133.0254 H   0  0  0  0  0  0  0  0  0  0  0  0
  146.0338  151.9162  132.9034 H   0  0  0  0  0  0  0  0  0  0  0  0
  146.8218  152.8157  131.5380 H   0  0  0  0  0  0  0  0  0  0  0  0
  1  2  1  0
  2  3  1  0
  3  4  2  0
  3  5  1  0
  5  6  1  0
  6  7  1  0
  7  8  1  0
  8  9  1  0
  9 10  2  0
 10 11  1  0
 11 12  2  0
 12 13  1  0
 13 14  2  0
 14 15  1  0
 15 16  1  0
 15 17  2  0
 14 18  1  0
 18 19  1  0
 19 20  2  0
 19 21  1  0
 21 22  1  0
 22 23  1  0
 23 24  2  0
 23 25  1  0
 18 26  1  0
 26 27  2  0
  8 28  1  0
 28 29  1  0
 29  5  1  0
 27  9  1  0
 26 12  1  0
  1 30  1  0
  1 31  1  0
  1 32  1  0
  5 33  1  0
  6 34  1  0
  6 35  1  0
  7 36  1  0
  7 37  1  0
 10 38  1  0
 11 39  1  0
 13 40  1  0
 16 41  1  0
 22 42  1  0
 22 43  1  0
 27 44  1  0
 28 45  1  0
 28 46  1  0
 29 47  1  0
 29 48  1  0
M  CHG  3   5   1  16  -1  25  -1
M  END
>  <UniqueID>  (15) 
15

>  <SMILES>  (15) 
COC(=O)[NH+]1CCN(c2ccc3cc(C([NH-])=O)n(C(=O)OCC(=O)[O-])c3c2)CC1

>  <Energy>  (15) 
95.33993079602784

>  <Genealogy>  (15) 
COC(=O)[NH+]1CCN(c2ccc3cc(C([NH-])=O)n(C(=O)OCC(=O)[O-])c3c2)CC1 (protonated)
COC(=O)[NH+]1CCN(c2ccc3cc(C([NH-])=O)n(C(=O)OCC(=O)[O-])c3c2)CC1 (3D coordinates assigned)
COC(=O)[NH+]1CCN(c2ccc3cc(C([NH-])=O)n(C(=O)OCC(=O)[O-])c3c2)CC1 (nonaromatic ring conformer: 95.33993079602784 kcal/mol)

>  <smiles>  (15) 
COC(=O)N1CCN(c2ccc3cc(C(N)=O)n(C(=O)OCC(=O)O)c3c2)CC1

>  <score_type>  (15) 
oracle

>  <origin>  (15) 
adg

>  <m_score__min__energy>  (15) 
-7.2800000000000002

>  <m_primary>  (15) 
energy

$$$$
15:0
     RDKit          3D

 38 39  0  0  0  0  0  0  0  0999 V2000
  141.5760  155.2870  133.3720 N   0  0  0  0  0  0  0  0  0  0  0  0
  141.6960  156.3310  134.3350 C   0  0  0  0  0  0  0  0  0  0  0  0
  140.9420  156.3300  135.3430 O   0  0  0  0  0  0  0  0  0  0  0  0
  142.7130  157.3890  134.1520 C   0  0  0  0  0  0  0  0  0  0  0  0
  142.4690  158.7450  134.3620 C   0  0  0  0  0  0  0  0  0  0  0  0
  143.6480  159.3810  134.0450 C   0  0  0  0  0  0  0  0  0  0  0  0
  143.9800  160.7320  134.0950 C   0  0  0  0  0  0  0  0  0  0  0  0
  145.2890  161.1020  133.7450 C   0  0  0  0  0  0  0  0  0  0  0  0
  146.2380  160.1210  133.3600 C   0  0  0  0  0  0  0  0  0  0  0  0
  147.6510  160.5270  133.0320 C   0  0  0  0  0  0  0  0  0  0  0  0
  148.2260  159.7410  131.8430 C   0  0  0  0  0  0  0  0  0  0  0  0
  149.3300  158.7390  132.2410 C   0  0  0  0  0  0  0  0  0  0  0  0
  148.7790  157.4220  132.5700 N   0  0  0  0  0  0  0  0  0  0  0  0
  145.8650  158.7590  133.3240 C   0  0  0  0  0  0  0  0  0  0  0  0
  144.5500  158.4240  133.6610 C   0  0  0  0  0  0  0  0  0  0  0  0
  143.9900  157.1970  133.7190 N   0  0  0  0  0  0  0  0  0  0  0  0
  144.6390  155.9510  133.4320 C   0  0  0  0  0  0  0  0  0  0  0  0
  144.4070  155.3610  132.3410 O   0  0  0  0  0  0  0  0  0  0  0  0
  145.6300  155.3680  134.3930 C   0  0  0  0  0  0  0  0  0  0  0  0
  147.0020  155.8640  134.0700 C   0  0  0  0  0  0  0  0  0  0  0  0
  147.5310  156.7630  134.7760 O   0  0  0  0  0  0  0  0  0  0  0  0
  147.6760  155.3720  132.9600 O   0  0  0  0  0  0  0  0  0  0  0  0
  142.2400  155.2180  132.5700 H   0  0  0  0  0  0  0  0  0  0  0  0
  141.5332  159.2085  134.7076 H   0  0  0  0  0  0  0  0  0  0  0  0
  143.2398  161.4867  134.3993 H   0  0  0  0  0  0  0  0  0  0  0  0
  145.5807  162.1623  133.7697 H   0  0  0  0  0  0  0  0  0  0  0  0
  147.6622  161.5989  132.7853 H   0  0  0  0  0  0  0  0  0  0  0  0
  148.2750  160.3089  133.9112 H   0  0  0  0  0  0  0  0  0  0  0  0
  147.4065  159.1840  131.3654 H   0  0  0  0  0  0  0  0  0  0  0  0
  148.6853  160.4740  131.1635 H   0  0  0  0  0  0  0  0  0  0  0  0
  150.0321  158.6311  131.4011 H   0  0  0  0  0  0  0  0  0  0  0  0
  149.8385  159.1291  133.1350 H   0  0  0  0  0  0  0  0  0  0  0  0
  147.7550  157.5200  132.7610 H   0  0  0  0  0  0  0  0  0  0  0  0
  149.2380  157.0290  133.4200 H   0  0  0  0  0  0  0  0  0  0  0  0
  148.9080  156.7680  131.7640 H   0  0  0  0  0  0  0  0  0  0  0  0
  146.5899  157.9825  133.0384 H   0  0  0  0  0  0  0  0  0  0  0  0
  145.3651  155.6684  135.4175 H   0  0  0  0  0  0  0  0  0  0  0  0
  145.6123  154.2712  134.3115 H   0  0  0  0  0  0  0  0  0  0  0  0
  1  2  1  0
  2  3  2  0
  2  4  1  0
  4  5  2  0
  5  6  1  0
  6  7  2  0
  7  8  1  0
  8  9  2  0
  9 10  1  0
 10 11  1  0
 11 12  1  0
 12 13  1  0
  9 14  1  0
 14 15  2  0
 15 16  1  0
 16 17  1  0
 17 18  2  0
 17 19  1  0
 19 20  1  0
 20 21  2  0
 20 22  1  0
 16  4  1  0
 15  6  1  0
  1 23  1  0
  5 24  1  0
  7 25  1  0
  8 26  1  0
 10 27  1  0
 10 28  1  0
 11 29  1  0
 11 30  1  0
 12 31  1  0
 12 32  1  0
 13 33  1  0
 13 34  1  0
 13 35  1  0
 14 36  1  0
 19 37  1  0
 19 38  1  0
M  CHG  3   1  -1  13   1  22  -1
M  END
>  <UniqueID>  (16) 
16

>  <SMILES>  (16) 
[NH-]C(=O)c1cc2ccc(CCC[NH3+])cc2n1C(=O)CC(=O)[O-]

>  <Energy>  (16) 
71.64271053281287

>  <Genealogy>  (16) 
[NH-]C(=O)c1cc2ccc(CCC[NH3+])cc2n1C(=O)CC(=O)[O-] (protonated)
[NH-]C(=O)c1cc2ccc(CCC[NH3+])cc2n1C(=O)CC(=O)[O-] (3D coordinates assigned)
[NH-]C(=O)c1cc2ccc(CCC[NH3+])cc2n1C(=O)CC(=O)[O-] (optimized conformer: 71.64271053281287 kcal/mol)

>  <smiles>  (16) 
NCCCc1ccc2cc(C(N)=O)n(C(=O)CC(=O)O)c2c1

>  <score_type>  (16) 
oracle

>  <origin>  (16) 
adg

>  <m_score__min__energy>  (16) 
-5.2699999999999996

>  <m_primary>  (16) 
energy

$$$$
16:0
     RDKit          3D

 59 61  0  0  0  0  0  0  0  0999 V2000
  139.0770  146.8230  129.8300 C   0  0  0  0  0  0  0  0  0  0  0  0
  139.0950  148.5600  130.2230 S   0  0  0  0  0  0  0  0  0  0  0  0
  140.1000  149.2460  129.3420 O   0  0  0  0  0  0  0  0  0  0  0  0
  137.7340  149.1420  129.9610 O   0  0  0  0  0  0  0  0  0  0  0  0
  139.5470  148.8390  131.9330 C   0  0  0  0  0  0  0  0  0  0  0  0
  141.0550  149.0030  132.1080 C   0  0  0  0  0  0  0  0  0  0  0  0
  141.4520  150.3070  131.7000 O   0  0  0  0  0  0  0  0  0  0  0  0
  141.0310  151.4700  132.3540 C   0  0  0  0  0  0  0  0  0  0  0  0
  139.8060  151.7710  132.3780 O   0  0  0  0  0  0  0  0  0  0  0  0
  141.9950  152.3160  133.0100 N   0  0  0  0  0  0  0  0  0  0  0  0
  141.5220  153.4410  133.8320 C   0  0  0  0  0  0  0  0  0  0  0  0
  142.6720  154.1000  134.5960 C   0  0  0  0  0  0  0  0  0  0  0  0
  143.7980  154.3340  133.6850 N   0  0  0  0  0  0  0  0  0  0  0  0
  144.4040  155.6360  133.5900 C   0  0  0  0  0  0  0  0  0  0  0  0
  145.7470  155.7690  133.1470 C   0  0  0  0  0  0  0  0  0  0  0  0
  146.3530  157.0330  133.0580 C   0  0  0  0  0  0  0  0  0  0  0  0
  145.5990  158.1450  133.4210 C   0  0  0  0  0  0  0  0  0  0  0  0
  145.9340  159.4810  133.4380 C   0  0  0  0  0  0  0  0  0  0  0  0
  144.7920  160.1410  133.8910 C   0  0  0  0  0  0  0  0  0  0  0  0
  144.6780  161.6100  134.0060 C   0  0  0  0  0  0  0  0  0  0  0  0
  145.8040  162.3800  134.4180 N   0  0  0  0  0  0  0  0  0  0  0  0
  143.5990  162.1960  133.7280 O   0  0  0  0  0  0  0  0  0  0  0  0
  143.7990  159.2460  134.1500 N   0  0  0  0  0  0  0  0  0  0  0  0
  142.4790  159.5050  134.6510 C   0  0  0  0  0  0  0  0  0  0  0  0
  142.3270  159.7120  135.8830 O   0  0  0  0  0  0  0  0  0  0  0  0
  141.3260  159.5340  133.7230 C   0  0  0  0  0  0  0  0  0  0  0  0
  141.4740  160.0820  132.5990 O   0  0  0  0  0  0  0  0  0  0  0  0
  140.0470  158.9580  134.0270 N   0  0  0  0  0  0  0  0  0  0  0  0
  139.1130  157.8880  133.0290 S   0  0  0  0  0  0  0  0  0  0  0  0
  138.7540  158.6540  131.4620 C   0  0  0  0  0  0  0  0  0  0  0  0
  137.8430  157.4950  133.7310 O   0  0  0  0  0  0  0  0  0  0  0  0
  139.9230  156.6510  132.7720 O   0  0  0  0  0  0  0  0  0  0  0  0
  144.3040  158.0330  133.8520 C   0  0  0  0  0  0  0  0  0  0  0  0
  143.6740  156.7900  133.9530 C   0  0  0  0  0  0  0  0  0  0  0  0
  144.2770  153.2430  132.8230 C   0  0  0  0  0  0  0  0  0  0  0  0
  143.4260  151.9750  132.9750 C   0  0  0  0  0  0  0  0  0  0  0  0
  139.0709  146.2366  130.7606 H   0  0  0  0  0  0  0  0  0  0  0  0
  138.1764  146.5891  129.2433 H   0  0  0  0  0  0  0  0  0  0  0  0
  139.9726  146.5705  129.2433 H   0  0  0  0  0  0  0  0  0  0  0  0
  139.0471  149.7524  132.2877 H   0  0  0  0  0  0  0  0  0  0  0  0
  139.2316  147.9604  132.5149 H   0  0  0  0  0  0  0  0  0  0  0  0
  141.3172  148.8565  133.1662 H   0  0  0  0  0  0  0  0  0  0  0  0
  141.5742  148.2566  131.4889 H   0  0  0  0  0  0  0  0  0  0  0  0
  141.0527  154.1897  133.1769 H   0  0  0  0  0  0  0  0  0  0  0  0
  140.7988  153.0530  134.5644 H   0  0  0  0  0  0  0  0  0  0  0  0
  142.3324  155.0599  135.0123 H   0  0  0  0  0  0  0  0  0  0  0  0
  142.9946  153.4378  135.4129 H   0  0  0  0  0  0  0  0  0  0  0  0
  146.3193  154.8713  132.8703 H   0  0  0  0  0  0  0  0  0  0  0  0
  147.3916  157.1407  132.7120 H   0  0  0  0  0  0  0  0  0  0  0  0
  146.8968  159.9312  133.1547 H   0  0  0  0  0  0  0  0  0  0  0  0
  146.5340  162.6770  133.7320 H   0  0  0  0  0  0  0  0  0  0  0  0
  138.2928  159.6381  131.6320 H   0  0  0  0  0  0  0  0  0  0  0  0
  139.6870  158.7797  130.8930 H   0  0  0  0  0  0  0  0  0  0  0  0
  138.0605  158.0174  130.8930 H   0  0  0  0  0  0  0  0  0  0  0  0
  142.6353  156.7117  134.3064 H   0  0  0  0  0  0  0  0  0  0  0  0
  144.2365  153.5745  131.7749 H   0  0  0  0  0  0  0  0  0  0  0  0
  145.3067  152.9994  133.1235 H   0  0  0  0  0  0  0  0  0  0  0  0
  143.6180  151.3059  132.1233 H   0  0  0  0  0  0  0  0  0  0  0  0
  143.6960  151.4761  133.9175 H   0  0  0  0  0  0  0  0  0  0  0  0
  1  2  1  0
  2  3  2  0
  2  4  2  0
  2  5  1  0
  5  6  1  0
  6  7  1  0
  7  8  1  0
  8  9  2  0
  8 10  1  0
 10 11  1  0
 11 12  1  0
 12 13  1  0
 13 14  1  0
 14 15  2  0
 15 16  1  0
 16 17  2  0
 17 18  1  0
 18 19  2  0
 19 20  1  0
 20 21  1  0
 20 22  2  0
 19 23  1  0
 23 24  1  0
 24 25  2  0
 24 26  1  0
 26 27  2  0
 26 28  1  0
 28 29  1  0
 29 30  1  0
 29 31  2  0
 29 32  2  0
 23 33  1  0
 33 34  2  0
 13 35  1  0
 35 36  1  0
 36 10  1  0
 34 14  1  0
 33 17  1  0
  1 37  1  0
  1 38  1  0
  1 39  1  0
  5 40  1  0
  5 41  1  0
  6 42  1  0
  6 43  1  0
 11 44  1  0
 11 45  1  0
 12 46  1  0
 12 47  1  0
 15 48  1  0
 16 49  1  0
 18 50  1  0
 21 51  1  0
 30 52  1  0
 30 53  1  0
 30 54  1  0
 34 55  1  0
 35 56  1  0
 35 57  1  0
 36 58  1  0
 36 59  1  0
M  CHG  2  21  -1  28  -1
M  END
>  <UniqueID>  (17) 
17

>  <SMILES>  (17) 
CS(=O)(=O)CCOC(=O)N1CCN(c2ccc3cc(C([NH-])=O)n(C(=O)C(=O)[N-]S(C)(=O)=O)c3c2)CC1

>  <Energy>  (17) 
92.27727333762905

>  <Genealogy>  (17) 
CS(=O)(=O)CCOC(=O)N1CCN(c2ccc3cc(C([NH-])=O)n(C(=O)C(=O)[N-]S(C)(=O)=O)c3c2)CC1 (protonated)
CS(=O)(=O)CCOC(=O)N1CCN(c2ccc3cc(C([NH-])=O)n(C(=O)C(=O)[N-]S(C)(=O)=O)c3c2)CC1 (3D coordinates assigned)
CS(=O)(=O)CCOC(=O)N1CCN(c2ccc3cc(C([NH-])=O)n(C(=O)C(=O)[N-]S(C)(=O)=O)c3c2)CC1 (nonaromatic ring conformer: 92.27727333762905 kcal/mol)

>  <smiles>  (17) 
CS(=O)(=O)CCOC(=O)N1CCN(c2ccc3cc(C(N)=O)n(C(=O)C(=O)NS(C)(=O)=O)c3c2)CC1

>  <score_type>  (17) 
oracle

>  <origin>  (17) 
adg

>  <m_score__min__energy>  (17) 
-9.9800000000000004

>  <m_primary>  (17) 
energy

$$$$
17:0
     RDKit          3D

 34 35  0  0  0  0  0  0  0  0999 V2000
  138.6280  159.0150  131.2770 C   0  0  0  0  0  0  0  0  0  0  0  0
  139.1110  158.4940  132.5470 N   0  0  0  0  0  0  0  0  0  0  0  0
  140.2350  159.0570  133.2240 C   0  0  0  0  0  0  0  0  0  0  0  0
  140.7220  160.1410  132.8040 O   0  0  0  0  0  0  0  0  0  0  0  0
  140.7780  158.4000  134.3380 O   0  0  0  0  0  0  0  0  0  0  0  0
  141.8310  158.8850  135.1230 C   0  0  0  0  0  0  0  0  0  0  0  0
  141.6210  159.7300  136.0360 O   0  0  0  0  0  0  0  0  0  0  0  0
  143.1230  158.4070  134.8710 O   0  0  0  0  0  0  0  0  0  0  0  0
  143.7570  158.4140  133.6210 C   0  0  0  0  0  0  0  0  0  0  0  0
  143.2180  157.8670  132.6200 O   0  0  0  0  0  0  0  0  0  0  0  0
  145.0460  159.0330  133.4840 N   0  0  0  0  0  0  0  0  0  0  0  0
  145.3610  160.3480  133.6550 C   0  0  0  0  0  0  0  0  0  0  0  0
  144.3980  161.4500  133.8670 C   0  0  0  0  0  0  0  0  0  0  0  0
  143.0050  161.2210  133.6750 N   0  0  0  0  0  0  0  0  0  0  0  0
  144.7890  162.5840  134.2500 O   0  0  0  0  0  0  0  0  0  0  0  0
  146.7330  160.5440  133.5210 C   0  0  0  0  0  0  0  0  0  0  0  0
  147.2560  159.3000  133.2520 C   0  0  0  0  0  0  0  0  0  0  0  0
  148.5760  158.9090  133.0470 C   0  0  0  0  0  0  0  0  0  0  0  0
  148.8310  157.5460  132.8230 C   0  0  0  0  0  0  0  0  0  0  0  0
  147.7700  156.6060  132.8050 C   0  0  0  0  0  0  0  0  0  0  0  0
  148.0620  155.1470  132.6160 C   0  0  0  0  0  0  0  0  0  0  0  0
  149.4270  154.9590  132.5230 F   0  0  0  0  0  0  0  0  0  0  0  0
  146.4450  157.0380  133.0330 C   0  0  0  0  0  0  0  0  0  0  0  0
  146.2170  158.4050  133.2360 C   0  0  0  0  0  0  0  0  0  0  0  0
  137.8910  159.8100  131.4633 H   0  0  0  0  0  0  0  0  0  0  0  0
  139.4726  159.4250  130.7038 H   0  0  0  0  0  0  0  0  0  0  0  0
  138.1553  158.2038  130.7038 H   0  0  0  0  0  0  0  0  0  0  0  0
  142.5480  160.3520  134.0340 H   0  0  0  0  0  0  0  0  0  0  0  0
  147.2825  161.4926  133.6111 H   0  0  0  0  0  0  0  0  0  0  0  0
  149.3939  159.6444  133.0600 H   0  0  0  0  0  0  0  0  0  0  0  0
  149.8639  157.2047  132.6600 H   0  0  0  0  0  0  0  0  0  0  0  0
  147.6715  154.5807  133.4744 H   0  0  0  0  0  0  0  0  0  0  0  0
  147.5794  154.7930  131.6931 H   0  0  0  0  0  0  0  0  0  0  0  0
  145.6128  156.3189  133.0508 H   0  0  0  0  0  0  0  0  0  0  0  0
  1  2  1  0
  2  3  1  0
  3  4  2  0
  3  5  1  0
  5  6  1  0
  6  7  2  0
  6  8  1  0
  8  9  1  0
  9 10  2  0
  9 11  1  0
 11 12  1  0
 12 13  1  0
 13 14  1  0
 13 15  2  0
 12 16  2  0
 16 17  1  0
 17 18  2  0
 18 19  1  0
 19 20  2  0
 20 21  1  0
 21 22  1  0
 20 23  1  0
 23 24  2  0
 24 11  1  0
 24 17  1  0
  1 25  1  0
  1 26  1  0
  1 27  1  0
 14 28  1  0
 16 29  1  0
 18 30  1  0
 19 31  1  0
 21 32  1  0
 21 33  1  0
 23 34  1  0
M  CHG  2   2  -1  14  -1
M  END
>  <UniqueID>  (18) 
18

>  <SMILES>  (18) 
C[N-]C(=O)OC(=O)OC(=O)n1c(C([NH-])=O)cc2ccc(CF)cc21

>  <Energy>  (18) 
71.3651876421837

>  <Genealogy>  (18) 
C[N-]C(=O)OC(=O)OC(=O)n1c(C([NH-])=O)cc2ccc(CF)cc21 (protonated)
C[N-]C(=O)OC(=O)OC(=O)n1c(C([NH-])=O)cc2ccc(CF)cc21 (3D coordinates assigned)
C[N-]C(=O)OC(=O)OC(=O)n1c(C([NH-])=O)cc2ccc(CF)cc21 (optimized conformer: 71.3651876421837 kcal/mol)

>  <smiles>  (18) 
CNC(=O)OC(=O)OC(=O)n1c(C(N)=O)cc2ccc(CF)cc21

>  <score_type>  (18) 
oracle

>  <origin>  (18) 
adg

>  <m_score__min__energy>  (18) 
-5.9400000000000004

>  <m_primary>  (18) 
energy

$$$$
18:0
     RDKit          3D

 35 36  0  0  0  0  0  0  0  0999 V2000
  149.6050  150.4300  135.3620 C   0  0  0  0  0  0  0  0  0  0  0  0
  149.6020  151.6600  134.6450 O   0  0  0  0  0  0  0  0  0  0  0  0
  149.0610  151.8210  133.3600 C   0  0  0  0  0  0  0  0  0  0  0  0
  149.4960  150.8160  132.1270 S   0  0  0  0  0  0  0  0  0  0  0  0
  148.1470  152.9100  133.1190 N   0  0  0  0  0  0  0  0  0  0  0  0
  146.8090  152.6020  132.6080 C   0  0  0  0  0  0  0  0  0  0  0  0
  148.6050  154.2780  133.1040 C   0  0  0  0  0  0  0  0  0  0  0  0
  149.7080  154.5670  132.5650 O   0  0  0  0  0  0  0  0  0  0  0  0
  147.7940  155.3340  133.6440 N   0  0  0  0  0  0  0  0  0  0  0  0
  146.8570  155.2510  134.6320 C   0  0  0  0  0  0  0  0  0  0  0  0
  146.5390  154.0430  135.4200 C   0  0  0  0  0  0  0  0  0  0  0  0
  147.5400  153.4490  136.2450 N   0  0  0  0  0  0  0  0  0  0  0  0
  145.3970  153.5140  135.3580 O   0  0  0  0  0  0  0  0  0  0  0  0
  146.2660  156.4950  134.8470 C   0  0  0  0  0  0  0  0  0  0  0  0
  146.8830  157.3510  133.9610 C   0  0  0  0  0  0  0  0  0  0  0  0
  146.6890  158.7110  133.7450 C   0  0  0  0  0  0  0  0  0  0  0  0
  147.4650  159.3390  132.7540 C   0  0  0  0  0  0  0  0  0  0  0  0
  148.3990  158.5960  131.9850 C   0  0  0  0  0  0  0  0  0  0  0  0
  149.2540  159.2930  130.9580 C   0  0  0  0  0  0  0  0  0  0  0  0
  148.9330  158.8190  129.7000 F   0  0  0  0  0  0  0  0  0  0  0  0
  150.5960  159.0550  131.2010 F   0  0  0  0  0  0  0  0  0  0  0  0
  149.0440  160.6610  130.9900 F   0  0  0  0  0  0  0  0  0  0  0  0
  148.5810  157.2180  132.2520 C   0  0  0  0  0  0  0  0  0  0  0  0
  147.8020  156.6250  133.2500 C   0  0  0  0  0  0  0  0  0  0  0  0
  149.6045  150.6355  136.4426 H   0  0  0  0  0  0  0  0  0  0  0  0
  148.7083  149.8499  135.0987 H   0  0  0  0  0  0  0  0  0  0  0  0
  150.5045  149.8543  135.0987 H   0  0  0  0  0  0  0  0  0  0  0  0
  146.1216  152.4438  133.4521 H   0  0  0  0  0  0  0  0  0  0  0  0
  146.4489  153.4407  131.9941 H   0  0  0  0  0  0  0  0  0  0  0  0
  146.8519  151.6902  131.9941 H   0  0  0  0  0  0  0  0  0  0  0  0
  148.1670  152.7020  135.8740 H   0  0  0  0  0  0  0  0  0  0  0  0
  145.4749  156.7411  135.5705 H   0  0  0  0  0  0  0  0  0  0  0  0
  145.9512  159.2784  134.3312 H   0  0  0  0  0  0  0  0  0  0  0  0
  147.3469  160.4175  132.5728 H   0  0  0  0  0  0  0  0  0  0  0  0
  149.3179  156.6276  131.6876 H   0  0  0  0  0  0  0  0  0  0  0  0
  1  2  1  0
  2  3  1  0
  3  4  2  0
  3  5  1  0
  5  6  1  0
  5  7  1  0
  7  8  2  0
  7  9  1  0
  9 10  1  0
 10 11  1  0
 11 12  1  0
 11 13  2  0
 10 14  2  0
 14 15  1  0
 15 16  2  0
 16 17  1  0
 17 18  2  0
 18 19  1  0
 19 20  1  0
 19 21  1  0
 19 22  1  0
 18 23  1  0
 23 24  2  0
 24  9  1  0
 24 15  1  0
  1 25  1  0
  1 26  1  0
  1 27  1  0
  6 28  1  0
  6 29  1  0
  6 30  1  0
 12 31  1  0
 14 32  1  0
 16 33  1  0
 17 34  1  0
 23 35  1  0
M  CHG  1  12  -1
M  END
>  <UniqueID>  (19) 
19

>  <SMILES>  (19) 
COC(=S)N(C)C(=O)n1c(C([NH-])=O)cc2ccc(C(F)(F)F)cc21

>  <Energy>  (19) 
77.8650806893015

>  <Genealogy>  (19) 
COC(=S)N(C)C(=O)n1c(C([NH-])=O)cc2ccc(C(F)(F)F)cc21 (protonated)
COC(=S)N(C)C(=O)n1c(C([NH-])=O)cc2ccc(C(F)(F)F)cc21 (3D coordinates assigned)
COC(=S)N(C)C(=O)n1c(C([NH-])=O)cc2ccc(C(F)(F)F)cc21 (optimized conformer: 77.8650806893015 kcal/mol)

>  <smiles>  (19) 
COC(=S)N(C)C(=O)n1c(C(N)=O)cc2ccc(C(F)(F)F)cc21

>  <score_type>  (19) 
oracle

>  <origin>  (19) 
adg

>  <m_score__min__energy>  (19) 
-6.4299999999999997

>  <m_primary>  (19) 
energy

$$$$
19:0
     RDKit          3D

 37 38  0  0  0  0  0  0  0  0999 V2000
  149.3030  160.4510  131.1690 C   0  0  0  0  0  0  0  0  0  0  0  0
  148.0330  160.2440  131.5110 C   0  0  0  0  0  0  0  0  0  0  0  0
  147.6190  159.9250  132.8900 C   0  0  0  0  0  0  0  0  0  0  0  0
  148.4390  160.1040  133.8300 O   0  0  0  0  0  0  0  0  0  0  0  0
  146.3210  159.3850  133.1820 N   0  0  0  0  0  0  0  0  0  0  0  0
  145.2060  160.0490  133.6000 C   0  0  0  0  0  0  0  0  0  0  0  0
  145.1250  161.4900  133.9200 C   0  0  0  0  0  0  0  0  0  0  0  0
  146.2420  162.1860  134.4660 N   0  0  0  0  0  0  0  0  0  0  0  0
  144.0460  162.1110  133.7300 O   0  0  0  0  0  0  0  0  0  0  0  0
  144.1390  159.1640  133.7370 C   0  0  0  0  0  0  0  0  0  0  0  0
  144.6430  157.9260  133.4000 C   0  0  0  0  0  0  0  0  0  0  0  0
  144.0220  156.6820  133.3660 C   0  0  0  0  0  0  0  0  0  0  0  0
  144.7920  155.5730  132.9730 C   0  0  0  0  0  0  0  0  0  0  0  0
  146.1590  155.7280  132.6170 C   0  0  0  0  0  0  0  0  0  0  0  0
  146.9470  154.5780  132.2380 N   0  0  0  0  0  0  0  0  0  0  0  0
  147.5710  153.9490  133.4120 C   0  0  0  0  0  0  0  0  0  0  0  0
  148.9040  153.3470  133.0740 C   0  0  0  0  0  0  0  0  0  0  0  0
  149.5900  153.8330  132.1330 O   0  0  0  0  0  0  0  0  0  0  0  0
  149.3870  152.2760  133.8310 O   0  0  0  0  0  0  0  0  0  0  0  0
  149.9150  151.0970  133.2360 C   0  0  0  0  0  0  0  0  0  0  0  0
  146.7530  157.0100  132.6710 C   0  0  0  0  0  0  0  0  0  0  0  0
  145.9630  158.0900  133.0720 C   0  0  0  0  0  0  0  0  0  0  0  0
  149.5603  160.6862  130.1257 H   0  0  0  0  0  0  0  0  0  0  0  0
  150.0949  160.3868  131.9297 H   0  0  0  0  0  0  0  0  0  0  0  0
  147.2597  160.3139  130.7318 H   0  0  0  0  0  0  0  0  0  0  0  0
  147.1940  161.7590  134.4630 H   0  0  0  0  0  0  0  0  0  0  0  0
  143.1113  159.4026  134.0483 H   0  0  0  0  0  0  0  0  0  0  0  0
  142.9621  156.5693  133.6379 H   0  0  0  0  0  0  0  0  0  0  0  0
  144.3312  154.5747  132.9408 H   0  0  0  0  0  0  0  0  0  0  0  0
  147.7010  154.8830  131.5800 H   0  0  0  0  0  0  0  0  0  0  0  0
  146.3570  153.8790  131.7280 H   0  0  0  0  0  0  0  0  0  0  0  0
  147.7112  154.7110  134.1928 H   0  0  0  0  0  0  0  0  0  0  0  0
  146.9091  153.1436  133.7630 H   0  0  0  0  0  0  0  0  0  0  0  0
  150.2284  150.3971  134.0246 H   0  0  0  0  0  0  0  0  0  0  0  0
  149.1427  150.6239  132.6116 H   0  0  0  0  0  0  0  0  0  0  0  0
  150.7821  151.3581  132.6116 H   0  0  0  0  0  0  0  0  0  0  0  0
  147.8104  157.1532  132.4040 H   0  0  0  0  0  0  0  0  0  0  0  0
  1  2  2  0
  2  3  1  0
  3  4  2  0
  3  5  1  0
  5  6  1  0
  6  7  1  0
  7  8  1  0
  7  9  2  0
  6 10  2  0
 10 11  1  0
 11 12  2  0
 12 13  1  0
 13 14  2  0
 14 15  1  0
 15 16  1  0
 16 17  1  0
 17 18  2  0
 17 19  1  0
 19 20  1  0
 14 21  1  0
 21 22  2  0
 22  5  1  0
 22 11  1  0
  1 23  1  0
  1 24  1  0
  2 25  1  0
  8 26  1  0
 10 27  1  0
 12 28  1  0
 13 29  1  0
 15 30  1  0
 15 31  1  0
 16 32  1  0
 16 33  1  0
 20 34  1  0
 20 35  1  0
 20 36  1  0
 21 37  1  0
M  CHG  2   8  -1  15   1
M  END
>  <UniqueID>  (20) 
20

>  <SMILES>  (20) 
C=CC(=O)n1c(C([NH-])=O)cc2ccc([NH2+]CC(=O)OC)cc21

>  <Energy>  (20) 
73.6717018699088

>  <Genealogy>  (20) 
C=CC(=O)n1c(C([NH-])=O)cc2ccc([NH2+]CC(=O)OC)cc21 (protonated)
C=CC(=O)n1c(C([NH-])=O)cc2ccc([NH2+]CC(=O)OC)cc21 (3D coordinates assigned)
C=CC(=O)n1c(C([NH-])=O)cc2ccc([NH2+]CC(=O)OC)cc21 (optimized conformer: 73.6717018699088 kcal/mol)

>  <smiles>  (20) 
C=CC(=O)n1c(C(N)=O)cc2ccc(NCC(=O)OC)cc21

>  <score_type>  (20) 
oracle

>  <origin>  (20) 
adg

>  <m_score__min__energy>  (20) 
-6.21

>  <m_primary>  (20) 
energy

$$$$
20:0
     RDKit          3D

 39 41  0  0  0  0  0  0  0  0999 V2000
  149.4930  158.9450  131.1110 C   0  0  0  0  0  0  0  0  0  0  0  0
  149.2870  158.5380  132.5110 N   0  0  0  0  0  0  0  0  0  0  0  0
  148.3920  157.3560  132.6320 C   0  0  0  0  0  0  0  0  0  0  0  0
  147.0270  157.6620  133.2770 C   0  0  0  0  0  0  0  0  0  0  0  0
  146.4810  159.0080  132.7770 C   0  0  0  0  0  0  0  0  0  0  0  0
  145.0940  159.2800  133.3310 C   0  0  0  0  0  0  0  0  0  0  0  0
  144.6610  160.6090  133.5860 C   0  0  0  0  0  0  0  0  0  0  0  0
  143.3820  160.8620  134.1080 C   0  0  0  0  0  0  0  0  0  0  0  0
  142.5540  159.7730  134.3590 C   0  0  0  0  0  0  0  0  0  0  0  0
  141.2830  159.7330  134.8840 C   0  0  0  0  0  0  0  0  0  0  0  0
  140.9410  158.3830  134.9220 C   0  0  0  0  0  0  0  0  0  0  0  0
  139.6120  157.8920  135.3400 C   0  0  0  0  0  0  0  0  0  0  0  0
  139.2940  157.8010  136.7260 N   0  0  0  0  0  0  0  0  0  0  0  0
  138.7380  157.5890  134.4850 O   0  0  0  0  0  0  0  0  0  0  0  0
  141.9640  157.6170  134.4460 N   0  0  0  0  0  0  0  0  0  0  0  0
  142.0340  156.1830  134.3860 C   0  0  0  0  0  0  0  0  0  0  0  0
  141.2470  155.5380  133.6440 O   0  0  0  0  0  0  0  0  0  0  0  0
  142.9900  155.4950  135.1240 O   0  0  0  0  0  0  0  0  0  0  0  0
  142.9430  158.4840  134.1030 C   0  0  0  0  0  0  0  0  0  0  0  0
  144.2180  158.2020  133.5990 C   0  0  0  0  0  0  0  0  0  0  0  0
  147.4590  160.1660  133.0880 C   0  0  0  0  0  0  0  0  0  0  0  0
  148.8950  159.6780  133.3650 C   0  0  0  0  0  0  0  0  0  0  0  0
  149.9896  159.9262  131.0837 H   0  0  0  0  0  0  0  0  0  0  0  0
  150.1230  158.2009  130.6017 H   0  0  0  0  0  0  0  0  0  0  0  0
  148.5203  159.0120  130.6017 H   0  0  0  0  0  0  0  0  0  0  0  0
  148.2148  156.9527  131.6241 H   0  0  0  0  0  0  0  0  0  0  0  0
  148.9012  156.6399  133.2937 H   0  0  0  0  0  0  0  0  0  0  0  0
  146.3166  156.8641  133.0149 H   0  0  0  0  0  0  0  0  0  0  0  0
  147.1549  157.7151  134.3682 H   0  0  0  0  0  0  0  0  0  0  0  0
  146.3903  158.9449  131.6826 H   0  0  0  0  0  0  0  0  0  0  0  0
  145.3362  161.4505  133.3718 H   0  0  0  0  0  0  0  0  0  0  0  0
  143.0456  161.8892  134.3120 H   0  0  0  0  0  0  0  0  0  0  0  0
  140.6674  160.5860  135.2056 H   0  0  0  0  0  0  0  0  0  0  0  0
  139.1040  158.6580  137.2910 H   0  0  0  0  0  0  0  0  0  0  0  0
  144.5323  157.1640  133.4152 H   0  0  0  0  0  0  0  0  0  0  0  0
  147.4802  160.8490  132.2260 H   0  0  0  0  0  0  0  0  0  0  0  0
  147.0988  160.6680  133.9981 H   0  0  0  0  0  0  0  0  0  0  0  0
  149.5906  160.5102  133.1814 H   0  0  0  0  0  0  0  0  0  0  0  0
  148.9332  159.3373  134.4102 H   0  0  0  0  0  0  0  0  0  0  0  0
  1  2  1  0
  2  3  1  0
  3  4  1  0
  4  5  1  0
  5  6  1  0
  6  7  2  0
  7  8  1  0
  8  9  2  0
  9 10  1  0
 10 11  2  0
 11 12  1  0
 12 13  1  0
 12 14  2  0
 11 15  1  0
 15 16  1  0
 16 17  2  0
 16 18  1  0
 15 19  1  0
 19 20  2  0
  5 21  1  0
 21 22  1  0
 22  2  1  0
 20  6  1  0
 19  9  1  0
  1 23  1  0
  1 24  1  0
  1 25  1  0
  3 26  1  0
  3 27  1  0
  4 28  1  0
  4 29  1  0
  5 30  1  0
  7 31  1  0
  8 32  1  0
 10 33  1  0
 13 34  1  0
 20 35  1  0
 21 36  1  0
 21 37  1  0
 22 38  1  0
 22 39  1  0
M  CHG  2  13  -1  18  -1
M  END
>  <UniqueID>  (21) 
21

>  <SMILES>  (21) 
CN1CCC(c2ccc3cc(C([NH-])=O)n(C(=O)[O-])c3c2)CC1

>  <Energy>  (21) 
89.15244809906356

>  <Genealogy>  (21) 
CN1CCC(c2ccc3cc(C([NH-])=O)n(C(=O)[O-])c3c2)CC1 (protonated)
CN1CCC(c2ccc3cc(C([NH-])=O)n(C(=O)[O-])c3c2)CC1 (3D coordinates assigned)
CN1CCC(c2ccc3cc(C([NH-])=O)n(C(=O)[O-])c3c2)CC1 (nonaromatic ring conformer: 89.15244809906356 kcal/mol)

>  <smiles>  (21) 
CN1CCC(c2ccc3cc(C(N)=O)n(C(=O)O)c3c2)CC1

>  <score_type>  (21) 
oracle

>  <origin>  (21) 
adg

>  <m_score__min__energy>  (21) 
-7.4800000000000004

>  <m_primary>  (21) 
energy

$$$$
21:0
     RDKit          3D

 30 31  0  0  0  0  0  0  0  0999 V2000
  141.2220  158.0060  134.3770 C   0  0  0  0  0  0  0  0  0  0  0  0
  142.5520  158.6500  134.1230 C   0  0  0  0  0  0  0  0  0  0  0  0
  142.6490  160.0610  134.0280 C   0  0  0  0  0  0  0  0  0  0  0  0
  143.8800  160.6750  133.7420 C   0  0  0  0  0  0  0  0  0  0  0  0
  144.9900  159.8560  133.5540 C   0  0  0  0  0  0  0  0  0  0  0  0
  146.2880  160.1830  133.2350 C   0  0  0  0  0  0  0  0  0  0  0  0
  146.9650  158.9680  133.1510 C   0  0  0  0  0  0  0  0  0  0  0  0
  148.4190  158.8640  132.9070 C   0  0  0  0  0  0  0  0  0  0  0  0
  148.9210  158.2340  131.7310 N   0  0  0  0  0  0  0  0  0  0  0  0
  149.2290  159.2920  133.7710 O   0  0  0  0  0  0  0  0  0  0  0  0
  146.1170  157.9290  133.3980 N   0  0  0  0  0  0  0  0  0  0  0  0
  146.4030  156.5250  133.3080 C   0  0  0  0  0  0  0  0  0  0  0  0
  147.0310  156.0740  132.3120 O   0  0  0  0  0  0  0  0  0  0  0  0
  146.0010  155.6680  134.3390 O   0  0  0  0  0  0  0  0  0  0  0  0
  146.9140  155.0420  135.2380 C   0  0  0  0  0  0  0  0  0  0  0  0
  146.2310  153.9500  135.9970 C   0  0  0  0  0  0  0  0  0  0  0  0
  144.9750  153.8670  135.9920 O   0  0  0  0  0  0  0  0  0  0  0  0
  146.9790  153.0400  136.7330 O   0  0  0  0  0  0  0  0  0  0  0  0
  144.9130  158.4890  133.6460 C   0  0  0  0  0  0  0  0  0  0  0  0
  143.6950  157.8500  133.9110 C   0  0  0  0  0  0  0  0  0  0  0  0
  141.0549  157.9251  135.4612 H   0  0  0  0  0  0  0  0  0  0  0  0
  140.4263  158.6186  133.9281 H   0  0  0  0  0  0  0  0  0  0  0  0
  141.2091  157.0019  133.9281 H   0  0  0  0  0  0  0  0  0  0  0  0
  141.7528  160.6806  134.1795 H   0  0  0  0  0  0  0  0  0  0  0  0
  143.9641  161.7693  133.6689 H   0  0  0  0  0  0  0  0  0  0  0  0
  146.7030  161.1897  133.0794 H   0  0  0  0  0  0  0  0  0  0  0  0
  148.6270  157.2660  131.4730 H   0  0  0  0  0  0  0  0  0  0  0  0
  147.7519  154.6168  134.6661 H   0  0  0  0  0  0  0  0  0  0  0  0
  147.2856  155.7934  135.9502 H   0  0  0  0  0  0  0  0  0  0  0  0
  143.6311  156.7527  133.9528 H   0  0  0  0  0  0  0  0  0  0  0  0
  1  2  1  0
  2  3  2  0
  3  4  1  0
  4  5  2  0
  5  6  1  0
  6  7  2  0
  7  8  1  0
  8  9  1  0
  8 10  2  0
  7 11  1  0
 11 12  1  0
 12 13  2  0
 12 14  1  0
 14 15  1  0
 15 16  1  0
 16 17  2  0
 16 18  1  0
 11 19  1  0
 19 20  2  0
 20  2  1  0
 19  5  1  0
  1 21  1  0
  1 22  1  0
  1 23  1  0
  3 24  1  0
  4 25  1  0
  6 26  1  0
  9 27  1  0
 15 28  1  0
 15 29  1  0
 20 30  1  0
M  CHG  2   9  -1  18  -1
M  END
>  <UniqueID>  (22) 
22

>  <SMILES>  (22) 
Cc1ccc2cc(C([NH-])=O)n(C(=O)OCC(=O)[O-])c2c1

>  <Energy>  (22) 
66.64311269922445

>  <Genealogy>  (22) 
Cc1ccc2cc(C([NH-])=O)n(C(=O)OCC(=O)[O-])c2c1 (protonated)
Cc1ccc2cc(C([NH-])=O)n(C(=O)OCC(=O)[O-])c2c1 (3D coordinates assigned)
Cc1ccc2cc(C([NH-])=O)n(C(=O)OCC(=O)[O-])c2c1 (optimized conformer: 66.64311269922445 kcal/mol)

>  <smiles>  (22) 
Cc1ccc2cc(C(N)=O)n(C(=O)OCC(=O)O)c2c1

>  <score_type>  (22) 
oracle

>  <origin>  (22) 
adg

>  <m_score__min__energy>  (22) 
-6.1799999999999997

>  <m_primary>  (22) 
energy

$$$$
22:0
     RDKit          3D

 37 39  0  0  0  0  0  0  0  0999 V2000
  146.1940  160.1120  133.3880 N   0  0  0  0  0  0  0  0  0  0  0  0
  145.2830  159.0450  133.6310 C   0  0  0  0  0  0  0  0  0  0  0  0
  144.1030  159.3100  133.9790 O   0  0  0  0  0  0  0  0  0  0  0  0
  145.7330  157.6440  133.4880 C   0  0  0  0  0  0  0  0  0  0  0  0
  144.8750  156.5510  133.3850 C   0  0  0  0  0  0  0  0  0  0  0  0
  145.7010  155.4480  133.2780 C   0  0  0  0  0  0  0  0  0  0  0  0
  145.3870  154.1050  133.0920 C   0  0  0  0  0  0  0  0  0  0  0  0
  146.4490  153.1920  132.9670 C   0  0  0  0  0  0  0  0  0  0  0  0
  147.7990  153.6310  133.0480 C   0  0  0  0  0  0  0  0  0  0  0  0
  148.9340  152.6560  132.8540 C   0  0  0  0  0  0  0  0  0  0  0  0
  148.5610  151.6340  131.9990 F   0  0  0  0  0  0  0  0  0  0  0  0
  150.0400  153.2870  132.3120 F   0  0  0  0  0  0  0  0  0  0  0  0
  149.2800  152.1120  134.0760 F   0  0  0  0  0  0  0  0  0  0  0  0
  148.0740  155.0100  133.2080 C   0  0  0  0  0  0  0  0  0  0  0  0
  146.9960  155.8880  133.3290 C   0  0  0  0  0  0  0  0  0  0  0  0
  147.0300  157.2300  133.4550 N   0  0  0  0  0  0  0  0  0  0  0  0
  148.2120  158.0380  133.5260 C   0  0  0  0  0  0  0  0  0  0  0  0
  148.4610  158.6800  134.5810 O   0  0  0  0  0  0  0  0  0  0  0  0
  149.1200  158.1210  132.3700 C   0  0  0  0  0  0  0  0  0  0  0  0
  149.9810  157.2210  132.1860 O   0  0  0  0  0  0  0  0  0  0  0  0
  149.0440  159.2130  131.4570 N   0  0  0  0  0  0  0  0  0  0  0  0
  148.1950  160.4010  131.2300 C   0  0  0  0  0  0  0  0  0  0  0  0
  148.9030  160.8630  129.9920 C   0  0  0  0  0  0  0  0  0  0  0  0
  149.6200  162.1270  130.1740 N   0  0  0  0  0  0  0  0  0  0  0  0
  149.7480  159.6500  130.2350 C   0  0  0  0  0  0  0  0  0  0  0  0
  147.0780  160.2040  133.9410 H   0  0  0  0  0  0  0  0  0  0  0  0
  143.7751  156.5633  133.3881 H   0  0  0  0  0  0  0  0  0  0  0  0
  144.3409  153.7683  133.0443 H   0  0  0  0  0  0  0  0  0  0  0  0
  146.2329  152.1257  132.8046 H   0  0  0  0  0  0  0  0  0  0  0  0
  149.1096  155.3798  133.2362 H   0  0  0  0  0  0  0  0  0  0  0  0
  147.1418  160.1422  131.0461 H   0  0  0  0  0  0  0  0  0  0  0  0
  148.1070  161.1211  132.0569 H   0  0  0  0  0  0  0  0  0  0  0  0
  148.4037  161.0819  129.0366 H   0  0  0  0  0  0  0  0  0  0  0  0
  150.6570  161.9700  130.1780 H   0  0  0  0  0  0  0  0  0  0  0  0
  149.4000  162.7300  129.3480 H   0  0  0  0  0  0  0  0  0  0  0  0
  149.6802  158.9147  129.4197 H   0  0  0  0  0  0  0  0  0  0  0  0
  150.8348  159.8025  130.3097 H   0  0  0  0  0  0  0  0  0  0  0  0
  1  2  1  0
  2  3  2  0
  2  4  1  0
  4  5  2  0
  5  6  1  0
  6  7  2  0
  7  8  1  0
  8  9  2  0
  9 10  1  0
 10 11  1  0
 10 12  1  0
 10 13  1  0
  9 14  1  0
 14 15  2  0
 15 16  1  0
 16 17  1  0
 17 18  2  0
 17 19  1  0
 19 20  2  0
 19 21  1  0
 21 22  1  0
 22 23  1  0
 23 24  1  0
 23 25  1  0
 16  4  1  0
 25 21  1  0
 15  6  1  0
  1 26  1  0
  5 27  1  0
  7 28  1  0
  8 29  1  0
 14 30  1  0
 22 31  1  0
 22 32  1  0
 23 33  1  0
 24 34  1  0
 24 35  1  0
 25 36  1  0
 25 37  1  0
M  CHG  1   1  -1
M  END
>  <UniqueID>  (23) 
23

>  <SMILES>  (23) 
[NH-]C(=O)c1cc2ccc(C(F)(F)F)cc2n1C(=O)C(=O)N1CC(N)C1

>  <Energy>  (23) 
123.94784772898333

>  <Genealogy>  (23) 
[NH-]C(=O)c1cc2ccc(C(F)(F)F)cc2n1C(=O)C(=O)N1CC(N)C1 (protonated)
[NH-]C(=O)c1cc2ccc(C(F)(F)F)cc2n1C(=O)C(=O)N1CC(N)C1 (3D coordinates assigned)
[NH-]C(=O)c1cc2ccc(C(F)(F)F)cc2n1C(=O)C(=O)N1CC(N)C1 (nonaromatic ring conformer: 123.94784772898333 kcal/mol)

>  <smiles>  (23) 
NC(=O)c1cc2ccc(C(F)(F)F)cc2n1C(=O)C(=O)N1CC(N)C1

>  <score_type>  (23) 
oracle

>  <origin>  (23) 
adg

>  <m_score__min__energy>  (23) 
-7.0099999999999998

>  <m_primary>  (23) 
energy

$$$$
23:0
     RDKit          3D

 52 54  0  0  0  0  0  0  0  0999 V2000
  141.2260  157.1890  137.6330 C   0  0  0  0  0  0  0  0  0  0  0  0
  140.2470  157.0940  136.6230 O   0  0  0  0  0  0  0  0  0  0  0  0
  140.0990  158.3340  135.9460 C   0  0  0  0  0  0  0  0  0  0  0  0
  139.5230  158.0940  134.5380 C   0  0  0  0  0  0  0  0  0  0  0  0
  140.4190  157.1380  133.7380 C   0  0  0  0  0  0  0  0  0  0  0  0
  141.8410  157.3670  134.0330 N   0  0  0  0  0  0  0  0  0  0  0  0
  142.8070  156.3450  133.7330 C   0  0  0  0  0  0  0  0  0  0  0  0
  142.3810  155.0490  133.3550 C   0  0  0  0  0  0  0  0  0  0  0  0
  143.3190  154.0490  133.0510 C   0  0  0  0  0  0  0  0  0  0  0  0
  144.6700  154.3740  133.1370 C   0  0  0  0  0  0  0  0  0  0  0  0
  145.7790  153.5940  132.9050 C   0  0  0  0  0  0  0  0  0  0  0  0
  146.8700  154.4240  133.1460 C   0  0  0  0  0  0  0  0  0  0  0  0
  148.2740  154.0150  132.9130 C   0  0  0  0  0  0  0  0  0  0  0  0
  149.2430  154.9640  132.4660 N   0  0  0  0  0  0  0  0  0  0  0  0
  148.6350  152.8320  133.1450 O   0  0  0  0  0  0  0  0  0  0  0  0
  146.4560  155.6680  133.5220 N   0  0  0  0  0  0  0  0  0  0  0  0
  147.2760  156.7760  133.9410 C   0  0  0  0  0  0  0  0  0  0  0  0
  148.4810  156.5820  134.2550 O   0  0  0  0  0  0  0  0  0  0  0  0
  146.7150  158.0540  134.0490 O   0  0  0  0  0  0  0  0  0  0  0  0
  147.0350  159.1470  133.2340 C   0  0  0  0  0  0  0  0  0  0  0  0
  146.1410  159.7610  132.5890 O   0  0  0  0  0  0  0  0  0  0  0  0
  148.4680  159.5660  133.0920 C   0  0  1  0  0  0  0  0  0  0  0  0
  149.1770  159.2210  134.2550 O   0  0  0  0  0  0  0  0  0  0  0  0
  149.1020  158.8990  131.8620 C   0  0  0  0  0  0  0  0  0  0  0  0
  149.7330  157.6940  132.2070 O   0  0  0  0  0  0  0  0  0  0  0  0
  145.1020  155.6230  133.5030 C   0  0  0  0  0  0  0  0  0  0  0  0
  144.1850  156.6320  133.8260 C   0  0  0  0  0  0  0  0  0  0  0  0
  142.2730  158.6580  134.5830 C   0  0  0  0  0  0  0  0  0  0  0  0
  141.4830  159.0170  135.8550 C   0  0  0  0  0  0  0  0  0  0  0  0
  140.7411  157.1419  138.6192 H   0  0  0  0  0  0  0  0  0  0  0  0
  141.9371  156.3556  137.5339 H   0  0  0  0  0  0  0  0  0  0  0  0
  141.7636  158.1435  137.5339 H   0  0  0  0  0  0  0  0  0  0  0  0
  139.4049  158.9855  136.4971 H   0  0  0  0  0  0  0  0  0  0  0  0
  138.5185  157.6552  134.6293 H   0  0  0  0  0  0  0  0  0  0  0  0
  139.4736  159.0569  134.0085 H   0  0  0  0  0  0  0  0  0  0  0  0
  140.1610  156.1013  134.0001 H   0  0  0  0  0  0  0  0  0  0  0  0
  140.2527  157.3211  132.6662 H   0  0  0  0  0  0  0  0  0  0  0  0
  141.3059  154.8232  133.2989 H   0  0  0  0  0  0  0  0  0  0  0  0
  142.9963  153.0402  132.7541 H   0  0  0  0  0  0  0  0  0  0  0  0
  145.7993  152.5388  132.5950 H   0  0  0  0  0  0  0  0  0  0  0  0
  150.2390  154.6770  132.3410 H   0  0  0  0  0  0  0  0  0  0  0  0
  148.9700  155.9430  132.2220 H   0  0  0  0  0  0  0  0  0  0  0  0
  148.5114  160.6564  132.9537 H   0  0  0  0  0  0  0  0  0  0  0  0
  149.2320  158.2300  134.2740 H   0  0  0  0  0  0  0  0  0  0  0  0
  148.3161  158.6930  131.1205 H   0  0  0  0  0  0  0  0  0  0  0  0
  149.8580  159.5816  131.4465 H   0  0  0  0  0  0  0  0  0  0  0  0
  149.9440  157.7500  133.1750 H   0  0  0  0  0  0  0  0  0  0  0  0
  144.5320  157.6259  134.1450 H   0  0  0  0  0  0  0  0  0  0  0  0
  143.3435  158.6021  134.8299 H   0  0  0  0  0  0  0  0  0  0  0  0
  142.0877  159.4363  133.8281 H   0  0  0  0  0  0  0  0  0  0  0  0
  142.0774  158.7132  136.7293 H   0  0  0  0  0  0  0  0  0  0  0  0
  141.3026  160.1016  135.8236 H   0  0  0  0  0  0  0  0  0  0  0  0
  1  2  1  0
  2  3  1  0
  3  4  1  0
  4  5  1  0
  5  6  1  0
  6  7  1  0
  7  8  2  0
  8  9  1  0
  9 10  2  0
 10 11  1  0
 11 12  2  0
 12 13  1  0
 13 14  1  0
 13 15  2  0
 12 16  1  0
 16 17  1  0
 17 18  2  0
 17 19  1  0
 19 20  1  0
 20 21  2  0
 20 22  1  0
 22 23  1  0
 22 24  1  0
 24 25  1  0
 16 26  1  0
 26 27  2  0
  6 28  1  0
 28 29  1  0
 29  3  1  0
 27  7  1  0
 26 10  1  0
  1 30  1  0
  1 31  1  0
  1 32  1  0
  3 33  1  0
  4 34  1  0
  4 35  1  0
  5 36  1  0
  5 37  1  0
  8 38  1  0
  9 39  1  0
 11 40  1  0
 14 41  1  0
 14 42  1  0
 22 43  1  6
 23 44  1  0
 24 45  1  0
 24 46  1  0
 25 47  1  0
 27 48  1  0
 28 49  1  0
 28 50  1  0
 29 51  1  0
 29 52  1  0
M  END
>  <UniqueID>  (24) 
24

>  <SMILES>  (24) 
COC1CCN(c2ccc3cc(C(N)=O)n(C(=O)OC(=O)[C@@H](O)CO)c3c2)CC1

>  <Energy>  (24) 
97.40996474931046

>  <Genealogy>  (24) 
COC1CCN(c2ccc3cc(C(N)=O)n(C(=O)OC(=O)[C@@H](O)CO)c3c2)CC1 (3D coordinates assigned)
COC1CCN(c2ccc3cc(C(N)=O)n(C(=O)OC(=O)[C@@H](O)CO)c3c2)CC1 (nonaromatic ring conformer: 97.40996474931046 kcal/mol)

>  <smiles>  (24) 
COC1CCN(c2ccc3cc(C(N)=O)n(C(=O)OC(=O)[C@@H](O)CO)c3c2)CC1

>  <score_type>  (24) 
oracle

>  <origin>  (24) 
adg

>  <m_score__min__energy>  (24) 
-7.75

>  <m_primary>  (24) 
energy

$$$$
24:0
     RDKit          3D

 43 45  0  0  0  0  0  0  0  0999 V2000
  141.9090  158.5620  131.6830 H   0  0  0  0  0  0  0  0  0  0  0  0
  140.9690  159.0090  131.7680 N   0  0  0  0  0  0  0  0  0  0  0  0
  140.5890  159.6910  132.9610 C   0  0  0  0  0  0  0  0  0  0  0  0
  140.1020  160.8490  132.8810 O   0  0  0  0  0  0  0  0  0  0  0  0
  140.8100  159.0520  134.2760 C   0  0  0  0  0  0  0  0  0  0  0  0
  141.3580  159.7180  135.3690 C   0  0  0  0  0  0  0  0  0  0  0  0
  141.7459  160.7469  135.3974 H   0  0  0  0  0  0  0  0  0  0  0  0
  141.3110  158.8150  136.4060 C   0  0  0  0  0  0  0  0  0  0  0  0
  141.7320  158.9460  137.7260 C   0  0  0  0  0  0  0  0  0  0  0  0
  142.1682  159.8879  138.0900 H   0  0  0  0  0  0  0  0  0  0  0  0
  141.5840  157.8420  138.5790 C   0  0  0  0  0  0  0  0  0  0  0  0
  141.9007  157.9217  139.6294 H   0  0  0  0  0  0  0  0  0  0  0  0
  141.0300  156.6210  138.1040 C   0  0  0  0  0  0  0  0  0  0  0  0
  140.8770  155.4410  138.9950 C   0  0  0  0  0  0  0  0  0  0  0  0
  140.8670  154.1720  138.4960 N   0  0  0  0  0  0  0  0  0  0  0  0
  140.7300  153.2400  139.4630 C   0  0  0  0  0  0  0  0  0  0  0  0
  140.6210  151.7800  139.1890 C   0  0  0  0  0  0  0  0  0  0  0  0
  140.5800  151.2303  140.1409 H   0  0  0  0  0  0  0  0  0  0  0  0
  139.7056  151.5826  138.6118 H   0  0  0  0  0  0  0  0  0  0  0  0
  141.4969  151.4489  138.6118 H   0  0  0  0  0  0  0  0  0  0  0  0
  140.5880  153.9450  140.9790 S   0  0  0  0  0  0  0  0  0  0  0  0
  140.7340  155.5120  140.3850 C   0  0  0  0  0  0  0  0  0  0  0  0
  140.7195  156.4334  140.9857 H   0  0  0  0  0  0  0  0  0  0  0  0
  140.6120  156.5340  136.7540 C   0  0  0  0  0  0  0  0  0  0  0  0
  140.1844  155.6006  136.3590 H   0  0  0  0  0  0  0  0  0  0  0  0
  140.7530  157.6580  135.9310 C   0  0  0  0  0  0  0  0  0  0  0  0
  140.4410  157.7860  134.6230 N   0  0  0  0  0  0  0  0  0  0  0  0
  139.9100  156.7620  133.7660 C   0  0  0  0  0  0  0  0  0  0  0  0
  138.6620  156.6060  133.6690 O   0  0  0  0  0  0  0  0  0  0  0  0
  140.7810  155.9310  133.0540 O   0  0  0  0  0  0  0  0  0  0  0  0
  141.9360  155.3430  133.6400 C   0  0  0  0  0  0  0  0  0  0  0  0
  142.2164  154.4415  133.0754 H   0  0  0  0  0  0  0  0  0  0  0  0
  141.7210  155.0669  134.6829 H   0  0  0  0  0  0  0  0  0  0  0  0
  143.0650  156.3290  133.6030 C   0  0  0  0  0  0  0  0  0  0  0  0
  143.0170  157.2860  132.7240 N   0  0  0  0  0  0  0  0  0  0  0  0
  143.9800  158.2650  132.6210 O   0  0  0  0  0  0  0  0  0  0  0  0
  143.9410  159.4000  133.4700 C   0  0  0  0  0  0  0  0  0  0  0  0
  143.9522  159.0729  134.5202 H   0  0  0  0  0  0  0  0  0  0  0  0
  144.8179  160.0346  133.2742 H   0  0  0  0  0  0  0  0  0  0  0  0
  143.0226  159.9730  133.2742 H   0  0  0  0  0  0  0  0  0  0  0  0
  144.1580  156.2250  134.6010 C   0  0  0  0  0  0  0  0  0  0  0  0
  143.9670  155.6070  135.6810 O   0  0  0  0  0  0  0  0  0  0  0  0
  145.4030  156.7990  134.3710 O   0  0  0  0  0  0  0  0  0  0  0  0
  1  2  1  0
  2  3  1  0
  3  4  2  0
  3  5  1  0
  5  6  2  0
  6  7  1  0
  6  8  1  0
  8  9  2  0
  9 10  1  0
  9 11  1  0
 11 12  1  0
 11 13  2  0
 13 14  1  0
 14 15  1  0
 15 16  2  0
 16 17  1  0
 17 18  1  0
 17 19  1  0
 17 20  1  0
 16 21  1  0
 21 22  1  0
 22 23  1  0
 13 24  1  0
 24 25  1  0
 24 26  2  0
 26 27  1  0
 27 28  1  0
 28 29  2  0
 28 30  1  0
 30 31  1  0
 31 32  1  0
 31 33  1  0
 31 34  1  0
 34 35  2  0
 35 36  1  0
 36 37  1  0
 37 38  1  0
 37 39  1  0
 37 40  1  0
 34 41  1  0
 41 42  2  0
 41 43  1  0
 27  5  1  0
 26  8  1  0
 22 14  2  0
M  CHG  2   2  -1  43  -1
M  END
>  <UniqueID>  (25) 
25

>  <SMILES>  (25) 
CO/N=C(/COC(=O)n1c(C([NH-])=O)cc2ccc(-c3csc(C)n3)cc21)C(=O)[O-]

>  <Energy>  (25) 
108.66986437399108

>  <Genealogy>  (25) 
CO/N=C(/COC(=O)n1c(C([NH-])=O)cc2ccc(-c3csc(C)n3)cc21)C(=O)[O-] (protonated)
CO/N=C(/COC(=O)n1c(C([NH-])=O)cc2ccc(-c3csc(C)n3)cc21)C(=O)[O-] (cis-trans isomerization)
CO/N=C(/COC(=O)n1c(C([NH-])=O)cc2ccc(-c3csc(C)n3)cc21)C(=O)[O-] (3D coordinates assigned)
CO/N=C(/COC(=O)n1c(C([NH-])=O)cc2ccc(-c3csc(C)n3)cc21)C(=O)[O-] (optimized conformer: 108.66986437399108 kcal/mol)

>  <smiles>  (25) 
CO/N=C(/COC(=O)n1c(C(N)=O)cc2ccc(-c3csc(C)n3)cc21)C(=O)O

>  <score_type>  (25) 
oracle

>  <origin>  (25) 
adg

>  <m_score__min__energy>  (25) 
-7.8799999999999999

>  <m_primary>  (25) 
energy

$$$$
25:0
     RDKit          3D

 40 42  0  0  0  0  0  0  0  0999 V2000
  149.6380  157.6540  131.8640 N   0  0  0  0  0  0  0  0  0  0  0  0
  149.0170  158.8880  132.2130 C   0  0  0  0  0  0  0  0  0  0  0  0
  149.7070  159.9430  132.2260 O   0  0  0  0  0  0  0  0  0  0  0  0
  147.5950  158.9400  132.6110 C   0  0  0  0  0  0  0  0  0  0  0  0
  146.9160  160.1280  132.8750 C   0  0  0  0  0  0  0  0  0  0  0  0
  145.6650  159.7460  133.3040 C   0  0  0  0  0  0  0  0  0  0  0  0
  144.5810  160.5210  133.7050 C   0  0  0  0  0  0  0  0  0  0  0  0
  143.4020  159.8590  134.0840 C   0  0  0  0  0  0  0  0  0  0  0  0
  143.3230  158.4450  134.0360 C   0  0  0  0  0  0  0  0  0  0  0  0
  142.0700  157.7420  134.4770 C   0  0  0  0  0  0  0  0  0  0  0  0
  140.9650  158.1020  133.5930 N   0  0  0  0  0  0  0  0  0  0  0  0
  139.6650  158.1730  133.9350 C   0  0  0  0  0  0  0  0  0  0  0  0
  138.9510  158.6320  132.8440 C   0  0  0  0  0  0  0  0  0  0  0  0
  139.8990  158.8320  131.8560 C   0  0  0  0  0  0  0  0  0  0  0  0
  141.1100  158.5080  132.3430 N   0  0  0  0  0  0  0  0  0  0  0  0
  144.4470  157.6910  133.6350 C   0  0  0  0  0  0  0  0  0  0  0  0
  145.6150  158.3760  133.2830 C   0  0  0  0  0  0  0  0  0  0  0  0
  146.7920  157.8670  132.8570 N   0  0  0  0  0  0  0  0  0  0  0  0
  147.0860  156.4770  132.6470 C   0  0  0  0  0  0  0  0  0  0  0  0
  146.9930  155.9830  131.4910 O   0  0  0  0  0  0  0  0  0  0  0  0
  147.4470  155.6730  133.7340 O   0  0  0  0  0  0  0  0  0  0  0  0
  147.5150  154.2490  133.6720 C   0  0  0  0  0  0  0  0  0  0  0  0
  148.6050  153.7990  132.6990 C   0  0  0  0  0  0  0  0  0  0  0  0
  149.5260  154.8320  132.4790 O   0  0  0  0  0  0  0  0  0  0  0  0
  149.0690  156.8010  131.6710 H   0  0  0  0  0  0  0  0  0  0  0  0
  147.2985  161.1534  132.7641 H   0  0  0  0  0  0  0  0  0  0  0  0
  144.6457  161.6189  133.7245 H   0  0  0  0  0  0  0  0  0  0  0  0
  142.5327  160.4428  134.4209 H   0  0  0  0  0  0  0  0  0  0  0  0
  142.2287  156.6542  134.4391 H   0  0  0  0  0  0  0  0  0  0  0  0
  141.8261  158.0448  135.5060 H   0  0  0  0  0  0  0  0  0  0  0  0
  139.2426  157.9104  134.9161 H   0  0  0  0  0  0  0  0  0  0  0  0
  137.8662  158.8013  132.7760 H   0  0  0  0  0  0  0  0  0  0  0  0
  139.6953  159.1965  130.8383 H   0  0  0  0  0  0  0  0  0  0  0  0
  142.0200  158.5760  131.8350 H   0  0  0  0  0  0  0  0  0  0  0  0
  144.4056  156.5923  133.6001 H   0  0  0  0  0  0  0  0  0  0  0  0
  147.7408  153.8548  134.6738 H   0  0  0  0  0  0  0  0  0  0  0  0
  146.5467  153.8650  133.3186 H   0  0  0  0  0  0  0  0  0  0  0  0
  149.1305  152.9299  133.1214 H   0  0  0  0  0  0  0  0  0  0  0  0
  148.1365  153.5311  131.7405 H   0  0  0  0  0  0  0  0  0  0  0  0
  149.0010  155.6240  132.1920 H   0  0  0  0  0  0  0  0  0  0  0  0
  1  2  1  0
  2  3  2  0
  2  4  1  0
  4  5  2  0
  5  6  1  0
  6  7  2  0
  7  8  1  0
  8  9  2  0
  9 10  1  0
 10 11  1  0
 11 12  1  0
 12 13  2  0
 13 14  1  0
 14 15  2  0
  9 16  1  0
 16 17  2  0
 17 18  1  0
 18 19  1  0
 19 20  2  0
 19 21  1  0
 21 22  1  0
 22 23  1  0
 23 24  1  0
 18  4  1  0
 17  6  1  0
 15 11  1  0
  1 25  1  0
  5 26  1  0
  7 27  1  0
  8 28  1  0
 10 29  1  0
 10 30  1  0
 12 31  1  0
 13 32  1  0
 14 33  1  0
 15 34  1  0
 16 35  1  0
 22 36  1  0
 22 37  1  0
 23 38  1  0
 23 39  1  0
 24 40  1  0
M  CHG  2   1  -1  15   1
M  END
>  <UniqueID>  (26) 
26

>  <SMILES>  (26) 
[NH-]C(=O)c1cc2ccc(Cn3ccc[nH+]3)cc2n1C(=O)OCCO

>  <Energy>  (26) 
105.55501108687412

>  <Genealogy>  (26) 
[NH-]C(=O)c1cc2ccc(Cn3ccc[nH+]3)cc2n1C(=O)OCCO (protonated)
[NH-]C(=O)c1cc2ccc(Cn3ccc[nH+]3)cc2n1C(=O)OCCO (3D coordinates assigned)
[NH-]C(=O)c1cc2ccc(Cn3ccc[nH+]3)cc2n1C(=O)OCCO (optimized conformer: 105.55501108687412 kcal/mol)

>  <smiles>  (26) 
NC(=O)c1cc2ccc(Cn3cccn3)cc2n1C(=O)OCCO

>  <score_type>  (26) 
oracle

>  <origin>  (26) 
adg

>  <m_score__min__energy>  (26) 
-5.8200000000000003

>  <m_primary>  (26) 
energy

$$$$
26:0
     RDKit          3D

 34 35  0  0  0  0  0  0  0  0999 V2000
  140.3540  159.3960  132.4360 C   0  0  0  0  0  0  0  0  0  0  0  0
  139.9430  159.2260  133.7870 O   0  0  0  0  0  0  0  0  0  0  0  0
  140.8510  159.1570  134.8470 C   0  0  0  0  0  0  0  0  0  0  0  0
  140.9760  160.1200  135.6520 O   0  0  0  0  0  0  0  0  0  0  0  0
  141.7090  157.9400  135.0070 C   0  0  0  0  0  0  0  0  0  0  0  0
  143.0870  158.2800  134.8750 O   0  0  0  0  0  0  0  0  0  0  0  0
  143.7520  158.3190  133.6440 C   0  0  0  0  0  0  0  0  0  0  0  0
  143.2330  157.7960  132.6210 O   0  0  0  0  0  0  0  0  0  0  0  0
  145.0390  158.9470  133.5520 N   0  0  0  0  0  0  0  0  0  0  0  0
  145.3190  160.2820  133.5420 C   0  0  0  0  0  0  0  0  0  0  0  0
  144.3530  161.3730  133.7840 C   0  0  0  0  0  0  0  0  0  0  0  0
  142.9480  161.1350  133.7320 N   0  0  0  0  0  0  0  0  0  0  0  0
  144.7720  162.5220  134.0890 O   0  0  0  0  0  0  0  0  0  0  0  0
  146.6840  160.4910  133.3530 C   0  0  0  0  0  0  0  0  0  0  0  0
  147.2370  159.2340  133.2600 C   0  0  0  0  0  0  0  0  0  0  0  0
  148.5570  158.8500  133.0530 C   0  0  0  0  0  0  0  0  0  0  0  0
  148.8380  157.4760  132.9680 C   0  0  0  0  0  0  0  0  0  0  0  0
  147.8040  156.5130  133.1020 C   0  0  0  0  0  0  0  0  0  0  0  0
  148.1090  155.0450  132.9470 C   0  0  0  0  0  0  0  0  0  0  0  0
  147.0950  154.4050  132.2570 F   0  0  0  0  0  0  0  0  0  0  0  0
  148.2380  154.4400  134.1850 F   0  0  0  0  0  0  0  0  0  0  0  0
  149.2930  154.8980  132.2480 F   0  0  0  0  0  0  0  0  0  0  0  0
  146.4700  156.9460  133.2880 C   0  0  0  0  0  0  0  0  0  0  0  0
  146.2230  158.3200  133.3860 C   0  0  0  0  0  0  0  0  0  0  0  0
  141.3702  159.8163  132.4120 H   0  0  0  0  0  0  0  0  0  0  0  0
  140.3481  158.4216  131.9256 H   0  0  0  0  0  0  0  0  0  0  0  0
  139.6615  160.0815  131.9256 H   0  0  0  0  0  0  0  0  0  0  0  0
  141.5373  157.5044  136.0024 H   0  0  0  0  0  0  0  0  0  0  0  0
  141.4453  157.2133  134.2245 H   0  0  0  0  0  0  0  0  0  0  0  0
  142.5340  160.2710  134.1480 H   0  0  0  0  0  0  0  0  0  0  0  0
  147.2083  161.4561  133.2912 H   0  0  0  0  0  0  0  0  0  0  0  0
  149.3570  159.5990  132.9586 H   0  0  0  0  0  0  0  0  0  0  0  0
  149.8720  157.1426  132.7955 H   0  0  0  0  0  0  0  0  0  0  0  0
  145.6464  156.2198  133.3540 H   0  0  0  0  0  0  0  0  0  0  0  0
  1  2  1  0
  2  3  1  0
  3  4  2  0
  3  5  1  0
  5  6  1  0
  6  7  1  0
  7  8  2  0
  7  9  1  0
  9 10  1  0
 10 11  1  0
 11 12  1  0
 11 13  2  0
 10 14  2  0
 14 15  1  0
 15 16  2  0
 16 17  1  0
 17 18  2  0
 18 19  1  0
 19 20  1  0
 19 21  1  0
 19 22  1  0
 18 23  1  0
 23 24  2  0
 24  9  1  0
 24 15  1  0
  1 25  1  0
  1 26  1  0
  1 27  1  0
  5 28  1  0
  5 29  1  0
 12 30  1  0
 14 31  1  0
 16 32  1  0
 17 33  1  0
 23 34  1  0
M  CHG  1  12  -1
M  END
>  <UniqueID>  (27) 
27

>  <SMILES>  (27) 
COC(=O)COC(=O)n1c(C([NH-])=O)cc2ccc(C(F)(F)F)cc21

>  <Energy>  (27) 
69.1918733698874

>  <Genealogy>  (27) 
COC(=O)COC(=O)n1c(C([NH-])=O)cc2ccc(C(F)(F)F)cc21 (protonated)
COC(=O)COC(=O)n1c(C([NH-])=O)cc2ccc(C(F)(F)F)cc21 (3D coordinates assigned)
COC(=O)COC(=O)n1c(C([NH-])=O)cc2ccc(C(F)(F)F)cc21 (optimized conformer: 69.1918733698874 kcal/mol)

>  <smiles>  (27) 
COC(=O)COC(=O)n1c(C(N)=O)cc2ccc(C(F)(F)F)cc21

>  <score_type>  (27) 
oracle

>  <origin>  (27) 
adg

>  <m_score__min__energy>  (27) 
-5.5300000000000002

>  <m_primary>  (27) 
energy

$$$$
27:0
     RDKit          3D

 35 36  0  0  0  0  0  0  0  0999 V2000
  148.8670  156.7160  132.8940 C   0  0  0  0  0  0  0  0  0  0  0  0
  147.8100  157.7710  133.0260 C   0  0  0  0  0  0  0  0  0  0  0  0
  148.1360  159.1360  132.8260 C   0  0  0  0  0  0  0  0  0  0  0  0
  147.1470  160.1290  132.9260 C   0  0  0  0  0  0  0  0  0  0  0  0
  145.8440  159.7270  133.2040 C   0  0  0  0  0  0  0  0  0  0  0  0
  144.7020  160.4770  133.3780 C   0  0  0  0  0  0  0  0  0  0  0  0
  143.6910  159.5540  133.6440 C   0  0  0  0  0  0  0  0  0  0  0  0
  142.2660  159.9120  133.8310 C   0  0  0  0  0  0  0  0  0  0  0  0
  141.3140  159.7040  132.7860 N   0  0  0  0  0  0  0  0  0  0  0  0
  141.8730  160.3890  134.9290 O   0  0  0  0  0  0  0  0  0  0  0  0
  144.1880  158.2860  133.6280 N   0  0  0  0  0  0  0  0  0  0  0  0
  143.4820  157.0660  133.9020 C   0  0  0  0  0  0  0  0  0  0  0  0
  143.9770  156.2270  134.7030 O   0  0  0  0  0  0  0  0  0  0  0  0
  142.2140  156.8150  133.2740 N   0  0  0  0  0  0  0  0  0  0  0  0
  141.4990  155.5760  133.3720 C   0  0  0  0  0  0  0  0  0  0  0  0
  141.9990  154.5900  133.9790 O   0  0  0  0  0  0  0  0  0  0  0  0
  140.2410  155.4710  132.7690 O   0  0  0  0  0  0  0  0  0  0  0  0
  139.1000  156.2090  133.2010 C   0  0  0  0  0  0  0  0  0  0  0  0
  139.2840  157.6670  132.9250 C   0  0  0  0  0  0  0  0  0  0  0  0
  139.8490  158.0420  131.8650 O   0  0  0  0  0  0  0  0  0  0  0  0
  138.8470  158.6130  133.8450 O   0  0  0  0  0  0  0  0  0  0  0  0
  145.5070  158.4080  133.3630 C   0  0  0  0  0  0  0  0  0  0  0  0
  146.4740  157.3980  133.2910 C   0  0  0  0  0  0  0  0  0  0  0  0
  149.1901  156.3935  133.8948 H   0  0  0  0  0  0  0  0  0  0  0  0
  148.4587  155.8545  132.3452 H   0  0  0  0  0  0  0  0  0  0  0  0
  149.7277  157.1259  132.3452 H   0  0  0  0  0  0  0  0  0  0  0  0
  149.1722  159.4203  132.5905 H   0  0  0  0  0  0  0  0  0  0  0  0
  147.3951  161.1918  132.7887 H   0  0  0  0  0  0  0  0  0  0  0  0
  144.6075  161.5714  133.3196 H   0  0  0  0  0  0  0  0  0  0  0  0
  140.3060  159.9260  132.9440 H   0  0  0  0  0  0  0  0  0  0  0  0
  141.6060  159.3660  131.8420 H   0  0  0  0  0  0  0  0  0  0  0  0
  141.7730  157.5870  132.7270 H   0  0  0  0  0  0  0  0  0  0  0  0
  138.2107  155.8482  132.6634 H   0  0  0  0  0  0  0  0  0  0  0  0
  138.9726  156.0653  134.2841 H   0  0  0  0  0  0  0  0  0  0  0  0
  146.2005  156.3426  133.4369 H   0  0  0  0  0  0  0  0  0  0  0  0
  1  2  1  0
  2  3  2  0
  3  4  1  0
  4  5  2  0
  5  6  1  0
  6  7  2  0
  7  8  1  0
  8  9  1  0
  8 10  2  0
  7 11  1  0
 11 12  1  0
 12 13  2  0
 12 14  1  0
 14 15  1  0
 15 16  2  0
 15 17  1  0
 17 18  1  0
 18 19  1  0
 19 20  2  0
 19 21  1  0
 11 22  1  0
 22 23  2  0
 23  2  1  0
 22  5  1  0
  1 24  1  0
  1 25  1  0
  1 26  1  0
  3 27  1  0
  4 28  1  0
  6 29  1  0
  9 30  1  0
  9 31  1  0
 14 32  1  0
 18 33  1  0
 18 34  1  0
 23 35  1  0
M  CHG  1  21  -1
M  END
>  <UniqueID>  (28) 
28

>  <SMILES>  (28) 
Cc1ccc2cc(C(N)=O)n(C(=O)NC(=O)OCC(=O)[O-])c2c1

>  <Energy>  (28) 
71.0592710457334

>  <Genealogy>  (28) 
Cc1ccc2cc(C(N)=O)n(C(=O)NC(=O)OCC(=O)[O-])c2c1 (protonated)
Cc1ccc2cc(C(N)=O)n(C(=O)NC(=O)OCC(=O)[O-])c2c1 (3D coordinates assigned)
Cc1ccc2cc(C(N)=O)n(C(=O)NC(=O)OCC(=O)[O-])c2c1 (optimized conformer: 71.0592710457334 kcal/mol)

>  <smiles>  (28) 
Cc1ccc2cc(C(N)=O)n(C(=O)NC(=O)OCC(=O)O)c2c1

>  <score_type>  (28) 
oracle

>  <origin>  (28) 
adg

>  <m_score__min__energy>  (28) 
-6.2800000000000002

>  <m_primary>  (28) 
energy

$$$$
28:0
     RDKit          3D

 45 46  0  0  0  0  0  0  0  0999 V2000
  143.5860  155.1540  136.0020 C   0  0  0  0  0  0  0  0  0  0  0  0
  144.7430  155.0980  135.1980 O   0  0  0  0  0  0  0  0  0  0  0  0
  145.0660  153.7560  134.8930 C   0  0  0  0  0  0  0  0  0  0  0  0
  145.3330  153.5970  133.4180 C   0  0  0  0  0  0  0  0  0  0  0  0
  145.4980  152.4710  132.9660 O   0  0  0  0  0  0  0  0  0  0  0  0
  145.4030  154.7580  132.5470 N   0  0  2  0  0  0  0  0  0  0  0  0
  144.5600  154.5970  131.3480 C   0  0  0  0  0  0  0  0  0  0  0  0
  146.7970  155.1790  132.2340 C   0  0  0  0  0  0  0  0  0  0  0  0
  147.6620  155.6870  133.4150 C   0  0  0  0  0  0  0  0  0  0  0  0
  148.2720  157.0780  133.1940 C   0  0  0  0  0  0  0  0  0  0  0  0
  147.2270  158.1490  133.3690 C   0  0  0  0  0  0  0  0  0  0  0  0
  147.5970  159.5160  133.3070 C   0  0  0  0  0  0  0  0  0  0  0  0
  146.6260  160.5240  133.4180 C   0  0  0  0  0  0  0  0  0  0  0  0
  145.3000  160.1370  133.5950 C   0  0  0  0  0  0  0  0  0  0  0  0
  144.1630  160.9040  133.7070 C   0  0  0  0  0  0  0  0  0  0  0  0
  143.1180  159.9960  133.8600 C   0  0  0  0  0  0  0  0  0  0  0  0
  141.7180  160.4030  134.1030 C   0  0  0  0  0  0  0  0  0  0  0  0
  141.1040  160.1130  135.3560 N   0  0  0  0  0  0  0  0  0  0  0  0
  141.0450  160.9700  133.2030 O   0  0  0  0  0  0  0  0  0  0  0  0
  143.5890  158.7150  133.8340 N   0  0  0  0  0  0  0  0  0  0  0  0
  142.8330  157.4950  133.9100 C   0  0  0  0  0  0  0  0  0  0  0  0
  141.8280  157.4130  134.6650 O   0  0  0  0  0  0  0  0  0  0  0  0
  143.1900  156.3990  133.1340 O   0  0  0  0  0  0  0  0  0  0  0  0
  144.9270  158.8200  133.6720 C   0  0  0  0  0  0  0  0  0  0  0  0
  145.8700  157.7940  133.5380 C   0  0  0  0  0  0  0  0  0  0  0  0
  143.8758  155.1400  137.0630 H   0  0  0  0  0  0  0  0  0  0  0  0
  143.0332  156.0800  135.7851 H   0  0  0  0  0  0  0  0  0  0  0  0
  142.9464  154.2858  135.7851 H   0  0  0  0  0  0  0  0  0  0  0  0
  145.9641  153.4632  135.4566 H   0  0  0  0  0  0  0  0  0  0  0  0
  144.2166  153.1147  135.1710 H   0  0  0  0  0  0  0  0  0  0  0  0
  144.9730  155.5610  133.0650 H   0  0  0  0  0  0  0  0  0  0  0  0
  143.5220  154.3988  131.6535 H   0  0  0  0  0  0  0  0  0  0  0  0
  144.5961  155.5183  130.7480 H   0  0  0  0  0  0  0  0  0  0  0  0
  144.9330  153.7539  130.7480 H   0  0  0  0  0  0  0  0  0  0  0  0
  147.3135  154.3138  131.7929 H   0  0  0  0  0  0  0  0  0  0  0  0
  146.6895  156.0462  131.5658 H   0  0  0  0  0  0  0  0  0  0  0  0
  147.0296  155.7263  134.3142 H   0  0  0  0  0  0  0  0  0  0  0  0
  148.5028  154.9851  133.5164 H   0  0  0  0  0  0  0  0  0  0  0  0
  149.0798  157.2385  133.9231 H   0  0  0  0  0  0  0  0  0  0  0  0
  148.6680  157.1329  132.1692 H   0  0  0  0  0  0  0  0  0  0  0  0
  148.6538  159.7893  133.1708 H   0  0  0  0  0  0  0  0  0  0  0  0
  146.9042  161.5870  133.3667 H   0  0  0  0  0  0  0  0  0  0  0  0
  144.0940  162.0015  133.6812 H   0  0  0  0  0  0  0  0  0  0  0  0
  140.9280  159.1280  135.6520 H   0  0  0  0  0  0  0  0  0  0  0  0
  145.5622  156.7383  133.5636 H   0  0  0  0  0  0  0  0  0  0  0  0
  1  2  1  0
  2  3  1  0
  3  4  1  0
  4  5  2  0
  4  6  1  0
  6  7  1  0
  6  8  1  0
  8  9  1  0
  9 10  1  0
 10 11  1  0
 11 12  2  0
 12 13  1  0
 13 14  2  0
 14 15  1  0
 15 16  2  0
 16 17  1  0
 17 18  1  0
 17 19  2  0
 16 20  1  0
 20 21  1  0
 21 22  2  0
 21 23  1  0
 20 24  1  0
 24 25  2  0
 25 11  1  0
 24 14  1  0
  1 26  1  0
  1 27  1  0
  1 28  1  0
  3 29  1  0
  3 30  1  0
  6 31  1  1
  7 32  1  0
  7 33  1  0
  7 34  1  0
  8 35  1  0
  8 36  1  0
  9 37  1  0
  9 38  1  0
 10 39  1  0
 10 40  1  0
 12 41  1  0
 13 42  1  0
 15 43  1  0
 18 44  1  0
 25 45  1  0
M  CHG  3   6   1  18  -1  23  -1
M  END
>  <UniqueID>  (29) 
29

>  <SMILES>  (29) 
COCC(=O)[N@H+](C)CCCc1ccc2cc(C([NH-])=O)n(C(=O)[O-])c2c1

>  <Energy>  (29) 
89.53432894702317

>  <Genealogy>  (29) 
COCC(=O)[NH+](C)CCCc1ccc2cc(C([NH-])=O)n(C(=O)[O-])c2c1 (protonated)
COCC(=O)[N@H+](C)CCCc1ccc2cc(C([NH-])=O)n(C(=O)[O-])c2c1 (chirality)
COCC(=O)[N@H+](C)CCCc1ccc2cc(C([NH-])=O)n(C(=O)[O-])c2c1 (3D coordinates assigned)
COCC(=O)[N@H+](C)CCCc1ccc2cc(C([NH-])=O)n(C(=O)[O-])c2c1 (optimized conformer: 89.53432894702317 kcal/mol)

>  <smiles>  (29) 
COCC(=O)N(C)CCCc1ccc2cc(C(N)=O)n(C(=O)O)c2c1

>  <score_type>  (29) 
oracle

>  <origin>  (29) 
adg

>  <m_score__min__energy>  (29) 
-6.1200000000000001

>  <m_primary>  (29) 
energy

$$$$
29:0
     RDKit          3D

 43 44  0  0  0  0  0  0  0  0999 V2000
  139.0280  159.4100  131.1140 C   0  0  0  0  0  0  0  0  0  0  0  0
  139.2850  158.1480  131.7160 O   0  0  0  0  0  0  0  0  0  0  0  0
  138.8850  157.8390  133.0210 C   0  0  0  0  0  0  0  0  0  0  0  0
  137.6580  157.8470  133.3240 O   0  0  0  0  0  0  0  0  0  0  0  0
  139.8840  157.4620  133.9950 N   0  0  1  0  0  0  0  0  0  0  0  0
  139.4790  157.8070  135.3700 C   0  0  0  0  0  0  0  0  0  0  0  0
  140.2810  156.0420  133.8460 C   0  0  0  0  0  0  0  0  0  0  0  0
  141.7320  155.8320  133.3800 C   0  0  0  0  0  0  0  0  0  0  0  0
  142.3250  157.1010  133.1260 O   0  0  0  0  0  0  0  0  0  0  0  0
  143.7080  157.2870  133.0420 C   0  0  0  0  0  0  0  0  0  0  0  0
  144.4490  156.3590  132.6170 O   0  0  0  0  0  0  0  0  0  0  0  0
  144.2820  158.5480  133.4210 N   0  0  0  0  0  0  0  0  0  0  0  0
  143.6370  159.6300  133.9430 C   0  0  0  0  0  0  0  0  0  0  0  0
  142.2310  159.6690  134.3950 C   0  0  0  0  0  0  0  0  0  0  0  0
  141.1580  159.6530  133.4580 N   0  0  0  0  0  0  0  0  0  0  0  0
  141.9730  159.6650  135.6290 O   0  0  0  0  0  0  0  0  0  0  0  0
  144.5150  160.7040  134.0750 C   0  0  0  0  0  0  0  0  0  0  0  0
  145.7290  160.2400  133.6220 C   0  0  0  0  0  0  0  0  0  0  0  0
  146.9490  160.8980  133.5060 C   0  0  0  0  0  0  0  0  0  0  0  0
  148.0330  160.1860  132.9660 C   0  0  0  0  0  0  0  0  0  0  0  0
  147.8840  158.8340  132.5610 C   0  0  0  0  0  0  0  0  0  0  0  0
  149.0360  158.1010  131.9250 C   0  0  0  0  0  0  0  0  0  0  0  0
  148.9950  156.7540  132.2420 F   0  0  0  0  0  0  0  0  0  0  0  0
  150.2440  158.6120  132.3660 F   0  0  0  0  0  0  0  0  0  0  0  0
  148.9620  158.2430  130.5510 F   0  0  0  0  0  0  0  0  0  0  0  0
  146.6190  158.2100  132.6740 C   0  0  0  0  0  0  0  0  0  0  0  0
  145.5620  158.9370  133.2340 C   0  0  0  0  0  0  0  0  0  0  0  0
  138.8741  160.1658  131.8983 H   0  0  0  0  0  0  0  0  0  0  0  0
  139.8856  159.6996  130.4890 H   0  0  0  0  0  0  0  0  0  0  0  0
  138.1255  159.3411  130.4890 H   0  0  0  0  0  0  0  0  0  0  0  0
  140.7370  158.0340  133.7880 H   0  0  0  0  0  0  0  0  0  0  0  0
  140.1146  157.2656  136.0862 H   0  0  0  0  0  0  0  0  0  0  0  0
  139.5926  158.8901  135.5248 H   0  0  0  0  0  0  0  0  0  0  0  0
  138.4277  157.5227  135.5248 H   0  0  0  0  0  0  0  0  0  0  0  0
  140.1577  155.5465  134.8203 H   0  0  0  0  0  0  0  0  0  0  0  0
  139.6358  155.6167  133.0631 H   0  0  0  0  0  0  0  0  0  0  0  0
  142.2995  155.3100  134.1645 H   0  0  0  0  0  0  0  0  0  0  0  0
  141.7437  155.2257  132.4623 H   0  0  0  0  0  0  0  0  0  0  0  0
  141.0380  158.8590  132.7910 H   0  0  0  0  0  0  0  0  0  0  0  0
  144.2864  161.7089  134.4595 H   0  0  0  0  0  0  0  0  0  0  0  0
  147.0616  161.9440  133.8273 H   0  0  0  0  0  0  0  0  0  0  0  0
  149.0085  160.6822  132.8558 H   0  0  0  0  0  0  0  0  0  0  0  0
  146.4695  157.1762  132.3293 H   0  0  0  0  0  0  0  0  0  0  0  0
  1  2  1  0
  2  3  1  0
  3  4  2  0
  3  5  1  0
  5  6  1  0
  5  7  1  0
  7  8  1  0
  8  9  1  0
  9 10  1  0
 10 11  2  0
 10 12  1  0
 12 13  1  0
 13 14  1  0
 14 15  1  0
 14 16  2  0
 13 17  2  0
 17 18  1  0
 18 19  2  0
 19 20  1  0
 20 21  2  0
 21 22  1  0
 22 23  1  0
 22 24  1  0
 22 25  1  0
 21 26  1  0
 26 27  2  0
 27 12  1  0
 27 18  1  0
  1 28  1  0
  1 29  1  0
  1 30  1  0
  5 31  1  6
  6 32  1  0
  6 33  1  0
  6 34  1  0
  7 35  1  0
  7 36  1  0
  8 37  1  0
  8 38  1  0
 15 39  1  0
 17 40  1  0
 19 41  1  0
 20 42  1  0
 26 43  1  0
M  CHG  2   5   1  15  -1
M  END
>  <UniqueID>  (30) 
30

>  <SMILES>  (30) 
COC(=O)[N@@H+](C)CCOC(=O)n1c(C([NH-])=O)cc2ccc(C(F)(F)F)cc21

>  <Energy>  (30) 
81.42123936195546

>  <Genealogy>  (30) 
COC(=O)[NH+](C)CCOC(=O)n1c(C([NH-])=O)cc2ccc(C(F)(F)F)cc21 (protonated)
COC(=O)[N@@H+](C)CCOC(=O)n1c(C([NH-])=O)cc2ccc(C(F)(F)F)cc21 (chirality)
COC(=O)[N@@H+](C)CCOC(=O)n1c(C([NH-])=O)cc2ccc(C(F)(F)F)cc21 (3D coordinates assigned)
COC(=O)[N@@H+](C)CCOC(=O)n1c(C([NH-])=O)cc2ccc(C(F)(F)F)cc21 (optimized conformer: 81.42123936195546 kcal/mol)

>  <smiles>  (30) 
COC(=O)N(C)CCOC(=O)n1c(C(N)=O)cc2ccc(C(F)(F)F)cc21

>  <score_type>  (30) 
oracle

>  <origin>  (30) 
adg

>  <m_score__min__energy>  (30) 
-4.4900000000000002

>  <m_primary>  (30) 
energy

$$$$
30:0
     RDKit          3D

 47 49  0  0  0  0  0  0  0  0999 V2000
  139.2920  147.4840  130.1120 C   0  0  0  0  0  0  0  0  0  0  0  0
  140.5350  148.1240  130.3820 O   0  0  0  0  0  0  0  0  0  0  0  0
  140.6920  149.2180  131.2470 C   0  0  0  0  0  0  0  0  0  0  0  0
  139.7000  150.2030  131.3950 C   0  0  0  0  0  0  0  0  0  0  0  0
  139.9130  151.2690  132.2670 C   0  0  0  0  0  0  0  0  0  0  0  0
  141.1080  151.3610  132.9960 C   0  0  0  0  0  0  0  0  0  0  0  0
  141.3470  152.4910  133.9290 C   0  0  0  0  0  0  0  0  0  0  0  0
  141.7870  152.2470  135.2560 C   0  0  0  0  0  0  0  0  0  0  0  0
  142.0260  153.3100  136.1420 C   0  0  0  0  0  0  0  0  0  0  0  0
  141.8120  154.6040  135.6820 C   0  0  0  0  0  0  0  0  0  0  0  0
  141.9910  155.8110  136.3190 C   0  0  0  0  0  0  0  0  0  0  0  0
  141.6380  156.7800  135.3810 C   0  0  0  0  0  0  0  0  0  0  0  0
  141.6030  158.2270  135.6790 C   0  0  0  0  0  0  0  0  0  0  0  0
  141.0460  159.1340  134.7300 N   0  0  0  0  0  0  0  0  0  0  0  0
  142.0950  158.6760  136.7470 O   0  0  0  0  0  0  0  0  0  0  0  0
  141.2610  156.1940  134.2090 N   0  0  0  0  0  0  0  0  0  0  0  0
  140.8970  156.8450  132.9810 C   0  0  0  0  0  0  0  0  0  0  0  0
  141.7890  157.3630  132.2550 O   0  0  0  0  0  0  0  0  0  0  0  0
  139.5510  156.9210  132.6070 O   0  0  0  0  0  0  0  0  0  0  0  0
  138.5540  157.5210  133.4260 C   0  0  0  0  0  0  0  0  0  0  0  0
  138.4860  158.9030  133.1430 O   0  0  0  0  0  0  0  0  0  0  0  0
  138.2350  159.1170  131.7670 C   0  0  0  0  0  0  0  0  0  0  0  0
  139.4820  159.6790  131.0840 C   0  0  0  0  0  0  0  0  0  0  0  0
  140.5530  159.7270  131.9880 O   0  0  0  0  0  0  0  0  0  0  0  0
  141.3710  154.8620  134.4110 C   0  0  0  0  0  0  0  0  0  0  0  0
  141.1420  153.8250  133.5000 C   0  0  0  0  0  0  0  0  0  0  0  0
  142.0740  150.3560  132.8190 C   0  0  0  0  0  0  0  0  0  0  0  0
  141.8470  149.3230  131.9610 N   0  0  0  0  0  0  0  0  0  0  0  0
  138.7971  147.2292  131.0607 H   0  0  0  0  0  0  0  0  0  0  0  0
  138.6482  148.1627  129.5333 H   0  0  0  0  0  0  0  0  0  0  0  0
  139.4705  146.5657  129.5333 H   0  0  0  0  0  0  0  0  0  0  0  0
  138.7613  150.1328  130.8259 H   0  0  0  0  0  0  0  0  0  0  0  0
  139.1398  152.0426  132.3843 H   0  0  0  0  0  0  0  0  0  0  0  0
  141.9428  151.2121  135.5948 H   0  0  0  0  0  0  0  0  0  0  0  0
  142.3722  153.1241  137.1694 H   0  0  0  0  0  0  0  0  0  0  0  0
  142.3388  155.9760  137.3495 H   0  0  0  0  0  0  0  0  0  0  0  0
  140.5450  158.7820  133.8840 H   0  0  0  0  0  0  0  0  0  0  0  0
  137.5793  157.0552  133.2188 H   0  0  0  0  0  0  0  0  0  0  0  0
  138.8107  157.3744  134.4855 H   0  0  0  0  0  0  0  0  0  0  0  0
  137.9613  158.1620  131.2948 H   0  0  0  0  0  0  0  0  0  0  0  0
  137.4114  159.8384  131.6603 H   0  0  0  0  0  0  0  0  0  0  0  0
  139.7525  159.0339  130.2351 H   0  0  0  0  0  0  0  0  0  0  0  0
  139.2671  160.6980  130.7299 H   0  0  0  0  0  0  0  0  0  0  0  0
  140.4100  158.9890  132.6370 H   0  0  0  0  0  0  0  0  0  0  0  0
  140.8102  154.0410  132.4737 H   0  0  0  0  0  0  0  0  0  0  0  0
  143.0205  150.4040  133.3775 H   0  0  0  0  0  0  0  0  0  0  0  0
  142.5850  148.5930  131.8460 H   0  0  0  0  0  0  0  0  0  0  0  0
  1  2  1  0
  2  3  1  0
  3  4  2  0
  4  5  1  0
  5  6  2  0
  6  7  1  0
  7  8  2  0
  8  9  1  0
  9 10  2  0
 10 11  1  0
 11 12  2  0
 12 13  1  0
 13 14  1  0
 13 15  2  0
 12 16  1  0
 16 17  1  0
 17 18  2  0
 17 19  1  0
 19 20  1  0
 20 21  1  0
 21 22  1  0
 22 23  1  0
 23 24  1  0
 16 25  1  0
 25 26  2  0
  6 27  1  0
 27 28  2  0
 28  3  1  0
 26  7  1  0
 25 10  1  0
  1 29  1  0
  1 30  1  0
  1 31  1  0
  4 32  1  0
  5 33  1  0
  8 34  1  0
  9 35  1  0
 11 36  1  0
 14 37  1  0
 20 38  1  0
 20 39  1  0
 22 40  1  0
 22 41  1  0
 23 42  1  0
 23 43  1  0
 24 44  1  0
 26 45  1  0
 27 46  1  0
 28 47  1  0
M  CHG  2  14  -1  28   1
M  END
>  <UniqueID>  (31) 
31

>  <SMILES>  (31) 
COc1ccc(-c2ccc3cc(C([NH-])=O)n(C(=O)OCOCCO)c3c2)c[nH+]1

>  <Energy>  (31) 
90.95228575822779

>  <Genealogy>  (31) 
COc1ccc(-c2ccc3cc(C([NH-])=O)n(C(=O)OCOCCO)c3c2)c[nH+]1 (protonated)
COc1ccc(-c2ccc3cc(C([NH-])=O)n(C(=O)OCOCCO)c3c2)c[nH+]1 (3D coordinates assigned)
COc1ccc(-c2ccc3cc(C([NH-])=O)n(C(=O)OCOCCO)c3c2)c[nH+]1 (optimized conformer: 90.95228575822779 kcal/mol)

>  <smiles>  (31) 
COc1ccc(-c2ccc3cc(C(N)=O)n(C(=O)OCOCCO)c3c2)cn1

>  <score_type>  (31) 
oracle

>  <origin>  (31) 
adg

>  <m_score__min__energy>  (31) 
-6.3799999999999999

>  <m_primary>  (31) 
energy

$$$$
31:0
     RDKit          3D

 37 38  0  0  0  0  0  0  0  0999 V2000
  140.8010  156.7920  133.3720 C   0  0  0  0  0  0  0  0  0  0  0  0
  141.3540  158.2180  133.5420 C   0  0  0  0  0  0  0  0  0  0  0  0
  141.2410  158.6800  135.0070 C   0  0  0  0  0  0  0  0  0  0  0  0
  142.7210  158.2830  133.1030 O   0  0  0  0  0  0  0  0  0  0  0  0
  143.8580  157.9450  133.8540 C   0  0  0  0  0  0  0  0  0  0  0  0
  143.7880  157.1040  134.7900 O   0  0  0  0  0  0  0  0  0  0  0  0
  145.1120  158.5780  133.5560 N   0  0  0  0  0  0  0  0  0  0  0  0
  145.4000  159.9090  133.6120 C   0  0  0  0  0  0  0  0  0  0  0  0
  144.4150  160.9910  133.8390 C   0  0  0  0  0  0  0  0  0  0  0  0
  143.0730  160.8670  133.3640 N   0  0  0  0  0  0  0  0  0  0  0  0
  144.7460  162.0210  134.4830 O   0  0  0  0  0  0  0  0  0  0  0  0
  146.7470  160.1310  133.3330 C   0  0  0  0  0  0  0  0  0  0  0  0
  147.2810  158.8840  133.1010 C   0  0  0  0  0  0  0  0  0  0  0  0
  148.5850  158.5150  132.7890 C   0  0  0  0  0  0  0  0  0  0  0  0
  148.8630  157.1470  132.6320 C   0  0  0  0  0  0  0  0  0  0  0  0
  147.8410  156.1790  132.7920 C   0  0  0  0  0  0  0  0  0  0  0  0
  148.1630  154.7210  132.6360 C   0  0  0  0  0  0  0  0  0  0  0  0
  149.5070  154.5670  132.3480 F   0  0  0  0  0  0  0  0  0  0  0  0
  147.8680  154.0510  133.8090 F   0  0  0  0  0  0  0  0  0  0  0  0
  146.5270  156.5920  133.1090 C   0  0  0  0  0  0  0  0  0  0  0  0
  146.2750  157.9630  133.2410 C   0  0  0  0  0  0  0  0  0  0  0  0
  140.5390  159.1500  132.6760 C   0  0  0  0  0  0  0  0  0  0  0  0
  139.7460  158.6930  131.8110 O   0  0  0  0  0  0  0  0  0  0  0  0
  140.6390  160.5280  132.8420 O   0  0  0  0  0  0  0  0  0  0  0  0
  140.6278  156.3454  134.3622 H   0  0  0  0  0  0  0  0  0  0  0  0
  139.8526  156.8304  132.8161 H   0  0  0  0  0  0  0  0  0  0  0  0
  141.5273  156.1809  132.8161 H   0  0  0  0  0  0  0  0  0  0  0  0
  141.4485  157.8318  135.6760 H   0  0  0  0  0  0  0  0  0  0  0  0
  141.9693  159.4825  135.1956 H   0  0  0  0  0  0  0  0  0  0  0  0
  140.2245  159.0557  135.1956 H   0  0  0  0  0  0  0  0  0  0  0  0
  142.7780  160.0530  132.7820 H   0  0  0  0  0  0  0  0  0  0  0  0
  142.3770  161.6200  133.5620 H   0  0  0  0  0  0  0  0  0  0  0  0
  147.2718  161.0973  133.3043 H   0  0  0  0  0  0  0  0  0  0  0  0
  149.3747  159.2713  132.6688 H   0  0  0  0  0  0  0  0  0  0  0  0
  149.8845  156.8241  132.3823 H   0  0  0  0  0  0  0  0  0  0  0  0
  147.5618  154.3061  131.8135 H   0  0  0  0  0  0  0  0  0  0  0  0
  145.7225  155.8549  133.2485 H   0  0  0  0  0  0  0  0  0  0  0  0
  1  2  1  0
  2  3  1  0
  2  4  1  0
  4  5  1  0
  5  6  2  0
  5  7  1  0
  7  8  1  0
  8  9  1  0
  9 10  1  0
  9 11  2  0
  8 12  2  0
 12 13  1  0
 13 14  2  0
 14 15  1  0
 15 16  2  0
 16 17  1  0
 17 18  1  0
 17 19  1  0
 16 20  1  0
 20 21  2  0
  2 22  1  0
 22 23  2  0
 22 24  1  0
 21  7  1  0
 21 13  1  0
  1 25  1  0
  1 26  1  0
  1 27  1  0
  3 28  1  0
  3 29  1  0
  3 30  1  0
 10 31  1  0
 10 32  1  0
 12 33  1  0
 14 34  1  0
 15 35  1  0
 17 36  1  0
 20 37  1  0
M  CHG  1  24  -1
M  END
>  <UniqueID>  (32) 
32

>  <SMILES>  (32) 
CC(C)(OC(=O)n1c(C(N)=O)cc2ccc(C(F)F)cc21)C(=O)[O-]

>  <Energy>  (32) 
73.0656479946517

>  <Genealogy>  (32) 
CC(C)(OC(=O)n1c(C(N)=O)cc2ccc(C(F)F)cc21)C(=O)[O-] (protonated)
CC(C)(OC(=O)n1c(C(N)=O)cc2ccc(C(F)F)cc21)C(=O)[O-] (3D coordinates assigned)
CC(C)(OC(=O)n1c(C(N)=O)cc2ccc(C(F)F)cc21)C(=O)[O-] (optimized conformer: 73.0656479946517 kcal/mol)

>  <smiles>  (32) 
CC(C)(OC(=O)n1c(C(N)=O)cc2ccc(C(F)F)cc21)C(=O)O

>  <score_type>  (32) 
oracle

>  <origin>  (32) 
adg

>  <m_score__min__energy>  (32) 
-6.3200000000000003

>  <m_primary>  (32) 
energy

$$$$
32:0
     RDKit          3D

 36 37  0  0  0  0  0  0  0  0999 V2000
  148.7480  157.2980  132.8100 C   0  0  0  0  0  0  0  0  0  0  0  0
  148.4760  158.7650  133.1680 C   0  0  0  0  0  0  0  0  0  0  0  0
  149.0480  159.6950  132.0890 C   0  0  0  0  0  0  0  0  0  0  0  0
  149.1510  159.0370  134.3490 F   0  0  0  0  0  0  0  0  0  0  0  0
  146.9800  159.0020  133.3440 C   0  0  0  0  0  0  0  0  0  0  0  0
  146.4490  160.3220  133.3510 C   0  0  0  0  0  0  0  0  0  0  0  0
  145.0730  160.5440  133.5260 C   0  0  0  0  0  0  0  0  0  0  0  0
  144.2460  159.4390  133.6850 C   0  0  0  0  0  0  0  0  0  0  0  0
  142.8870  159.3710  133.8930 C   0  0  0  0  0  0  0  0  0  0  0  0
  142.5940  158.0130  133.9880 C   0  0  0  0  0  0  0  0  0  0  0  0
  141.2200  157.4870  134.1240 C   0  0  0  0  0  0  0  0  0  0  0  0
  140.7580  156.4170  133.3030 N   0  0  0  0  0  0  0  0  0  0  0  0
  140.4260  158.0210  134.9440 O   0  0  0  0  0  0  0  0  0  0  0  0
  143.7290  157.2700  133.8530 N   0  0  0  0  0  0  0  0  0  0  0  0
  143.8720  155.8450  133.9650 C   0  0  0  0  0  0  0  0  0  0  0  0
  143.2850  155.0860  133.1460 O   0  0  0  0  0  0  0  0  0  0  0  0
  144.6410  155.3050  135.0000 O   0  0  0  0  0  0  0  0  0  0  0  0
  145.5080  154.1940  134.8170 C   0  0  0  0  0  0  0  0  0  0  0  0
  146.6880  154.3410  135.7180 C   0  0  0  0  0  0  0  0  0  0  0  0
  147.4100  155.3690  135.6530 O   0  0  0  0  0  0  0  0  0  0  0  0
  146.9590  153.3680  136.6710 O   0  0  0  0  0  0  0  0  0  0  0  0
  144.7300  158.1580  133.6660 C   0  0  0  0  0  0  0  0  0  0  0  0
  146.0980  157.9050  133.5150 C   0  0  0  0  0  0  0  0  0  0  0  0
  148.8571  156.7095  133.7329 H   0  0  0  0  0  0  0  0  0  0  0  0
  147.9079  156.9027  132.2202 H   0  0  0  0  0  0  0  0  0  0  0  0
  149.6740  157.2301  132.2202 H   0  0  0  0  0  0  0  0  0  0  0  0
  149.5665  160.5381  132.5689 H   0  0  0  0  0  0  0  0  0  0  0  0
  149.7587  159.1362  131.4624 H   0  0  0  0  0  0  0  0  0  0  0  0
  148.2287  160.0772  131.4624 H   0  0  0  0  0  0  0  0  0  0  0  0
  147.1247  161.1797  133.2177 H   0  0  0  0  0  0  0  0  0  0  0  0
  144.6618  161.5642  133.5369 H   0  0  0  0  0  0  0  0  0  0  0  0
  142.1816  160.2117  133.9683 H   0  0  0  0  0  0  0  0  0  0  0  0
  141.3880  155.9670  132.6030 H   0  0  0  0  0  0  0  0  0  0  0  0
  144.9722  153.2647  135.0607 H   0  0  0  0  0  0  0  0  0  0  0  0
  145.8440  154.1550  133.7703 H   0  0  0  0  0  0  0  0  0  0  0  0
  146.4820  156.8743  133.5287 H   0  0  0  0  0  0  0  0  0  0  0  0
  1  2  1  0
  2  3  1  0
  2  4  1  0
  2  5  1  0
  5  6  2  0
  6  7  1  0
  7  8  2  0
  8  9  1  0
  9 10  2  0
 10 11  1  0
 11 12  1  0
 11 13  2  0
 10 14  1  0
 14 15  1  0
 15 16  2  0
 15 17  1  0
 17 18  1  0
 18 19  1  0
 19 20  2  0
 19 21  1  0
 14 22  1  0
 22 23  2  0
 23  5  1  0
 22  8  1  0
  1 24  1  0
  1 25  1  0
  1 26  1  0
  3 27  1  0
  3 28  1  0
  3 29  1  0
  6 30  1  0
  7 31  1  0
  9 32  1  0
 12 33  1  0
 18 34  1  0
 18 35  1  0
 23 36  1  0
M  CHG  2  12  -1  21  -1
M  END
>  <UniqueID>  (33) 
33

>  <SMILES>  (33) 
CC(C)(F)c1ccc2cc(C([NH-])=O)n(C(=O)OCC(=O)[O-])c2c1

>  <Energy>  (33) 
70.04219260695494

>  <Genealogy>  (33) 
CC(C)(F)c1ccc2cc(C([NH-])=O)n(C(=O)OCC(=O)[O-])c2c1 (protonated)
CC(C)(F)c1ccc2cc(C([NH-])=O)n(C(=O)OCC(=O)[O-])c2c1 (3D coordinates assigned)
CC(C)(F)c1ccc2cc(C([NH-])=O)n(C(=O)OCC(=O)[O-])c2c1 (optimized conformer: 70.04219260695494 kcal/mol)

>  <smiles>  (33) 
CC(C)(F)c1ccc2cc(C(N)=O)n(C(=O)OCC(=O)O)c2c1

>  <score_type>  (33) 
oracle

>  <origin>  (33) 
adg

>  <m_score__min__energy>  (33) 
-6.3600000000000003

>  <m_primary>  (33) 
energy

$$$$
33:0
     RDKit          3D

 31 32  0  0  0  0  0  0  0  0999 V2000
  149.1940  159.4540  129.8550 C   0  0  0  0  0  0  0  0  0  0  0  0
  149.2910  159.2870  131.3330 C   0  0  0  0  0  0  0  0  0  0  0  0
  149.9620  160.1140  132.0080 O   0  0  0  0  0  0  0  0  0  0  0  0
  148.6730  158.1850  131.9370 O   0  0  0  0  0  0  0  0  0  0  0  0
  148.0400  158.2020  133.1880 C   0  0  0  0  0  0  0  0  0  0  0  0
  148.7150  158.2750  134.2510 O   0  0  0  0  0  0  0  0  0  0  0  0
  146.6050  158.1430  133.2580 N   0  0  0  0  0  0  0  0  0  0  0  0
  145.8160  157.0330  133.1930 C   0  0  0  0  0  0  0  0  0  0  0  0
  146.2720  155.6640  132.8770 C   0  0  0  0  0  0  0  0  0  0  0  0
  147.3790  155.4360  132.0030 N   0  0  0  0  0  0  0  0  0  0  0  0
  145.6390  154.6790  133.3410 O   0  0  0  0  0  0  0  0  0  0  0  0
  144.4840  157.3620  133.4210 C   0  0  0  0  0  0  0  0  0  0  0  0
  144.4750  158.7240  133.6150 C   0  0  0  0  0  0  0  0  0  0  0  0
  143.4150  159.5770  133.9050 C   0  0  0  0  0  0  0  0  0  0  0  0
  143.7000  160.9390  134.1010 C   0  0  0  0  0  0  0  0  0  0  0  0
  145.0290  161.4240  133.9990 C   0  0  0  0  0  0  0  0  0  0  0  0
  145.3300  162.8760  134.2750 C   0  0  0  0  0  0  0  0  0  0  0  0
  145.2960  163.1310  135.6350 F   0  0  0  0  0  0  0  0  0  0  0  0
  144.3840  163.6630  133.6450 F   0  0  0  0  0  0  0  0  0  0  0  0
  146.5860  163.2140  133.8030 F   0  0  0  0  0  0  0  0  0  0  0  0
  146.0820  160.5200  133.7280 C   0  0  0  0  0  0  0  0  0  0  0  0
  145.7660  159.1720  133.5130 C   0  0  0  0  0  0  0  0  0  0  0  0
  148.6536  160.3843  129.6258 H   0  0  0  0  0  0  0  0  0  0  0  0
  150.2050  159.5016  129.4242 H   0  0  0  0  0  0  0  0  0  0  0  0
  148.6518  158.5993  129.4242 H   0  0  0  0  0  0  0  0  0  0  0  0
  147.8150  156.2190  131.4690 H   0  0  0  0  0  0  0  0  0  0  0  0
  147.7120  154.4630  131.8230 H   0  0  0  0  0  0  0  0  0  0  0  0
  143.6219  156.6791  133.4418 H   0  0  0  0  0  0  0  0  0  0  0  0
  142.3853  159.1970  133.9786 H   0  0  0  0  0  0  0  0  0  0  0  0
  142.8831  161.6370  134.3362 H   0  0  0  0  0  0  0  0  0  0  0  0
  147.1250  160.8670  133.6869 H   0  0  0  0  0  0  0  0  0  0  0  0
  1  2  1  0
  2  3  2  0
  2  4  1  0
  4  5  1  0
  5  6  2  0
  5  7  1  0
  7  8  1  0
  8  9  1  0
  9 10  1  0
  9 11  2  0
  8 12  2  0
 12 13  1  0
 13 14  2  0
 14 15  1  0
 15 16  2  0
 16 17  1  0
 17 18  1  0
 17 19  1  0
 17 20  1  0
 16 21  1  0
 21 22  2  0
 22  7  1  0
 22 13  1  0
  1 23  1  0
  1 24  1  0
  1 25  1  0
 10 26  1  0
 10 27  1  0
 12 28  1  0
 14 29  1  0
 15 30  1  0
 21 31  1  0
M  END
>  <UniqueID>  (34) 
34

>  <SMILES>  (34) 
CC(=O)OC(=O)n1c(C(N)=O)cc2ccc(C(F)(F)F)cc21

>  <Energy>  (34) 
70.68486359202338

>  <Genealogy>  (34) 
CC(=O)OC(=O)n1c(C(N)=O)cc2ccc(C(F)(F)F)cc21 (3D coordinates assigned)
CC(=O)OC(=O)n1c(C(N)=O)cc2ccc(C(F)(F)F)cc21 (optimized conformer: 70.68486359202338 kcal/mol)

>  <smiles>  (34) 
CC(=O)OC(=O)n1c(C(N)=O)cc2ccc(C(F)(F)F)cc21

>  <score_type>  (34) 
oracle

>  <origin>  (34) 
adg

>  <m_score__min__energy>  (34) 
-6.2300000000000004

>  <m_primary>  (34) 
energy

$$$$
34:0
     RDKit          3D

 40 41  0  0  0  0  0  0  0  0999 V2000
  143.0010  160.6420  133.4010 N   0  0  0  0  0  0  0  0  0  0  0  0
  144.3710  160.8510  133.7350 C   0  0  0  0  0  0  0  0  0  0  0  0
  144.7250  161.9530  134.2300 O   0  0  0  0  0  0  0  0  0  0  0  0
  145.3510  159.7620  133.5370 C   0  0  0  0  0  0  0  0  0  0  0  0
  146.7150  159.9790  133.3650 C   0  0  0  0  0  0  0  0  0  0  0  0
  147.2560  158.7340  133.1310 C   0  0  0  0  0  0  0  0  0  0  0  0
  148.5780  158.3600  132.9140 C   0  0  0  0  0  0  0  0  0  0  0  0
  148.8560  156.9940  132.7380 C   0  0  0  0  0  0  0  0  0  0  0  0
  147.8140  156.0350  132.7790 C   0  0  0  0  0  0  0  0  0  0  0  0
  148.1310  154.5720  132.6490 C   0  0  0  0  0  0  0  0  0  0  0  0
  147.5120  153.8190  133.7810 C   0  0  0  0  0  0  0  0  0  0  0  0
  146.3420  153.3630  133.6650 O   0  0  0  0  0  0  0  0  0  0  0  0
  148.2250  153.6710  134.9760 O   0  0  0  0  0  0  0  0  0  0  0  0
  148.0890  154.5580  136.0840 C   0  0  0  0  0  0  0  0  0  0  0  0
  147.3540  153.8680  137.2340 C   0  0  0  0  0  0  0  0  0  0  0  0
  146.3700  153.0050  136.7340 O   0  0  0  0  0  0  0  0  0  0  0  0
  146.4840  156.4520  133.0140 C   0  0  0  0  0  0  0  0  0  0  0  0
  146.2350  157.8200  133.1690 C   0  0  0  0  0  0  0  0  0  0  0  0
  145.0580  158.4350  133.4200 N   0  0  0  0  0  0  0  0  0  0  0  0
  143.7860  157.7950  133.6110 C   0  0  0  0  0  0  0  0  0  0  0  0
  142.9050  157.8690  132.7120 O   0  0  0  0  0  0  0  0  0  0  0  0
  143.5400  157.0760  134.7860 O   0  0  0  0  0  0  0  0  0  0  0  0
  143.1250  155.7120  134.7970 C   0  0  0  0  0  0  0  0  0  0  0  0
  144.2330  154.8350  135.2860 C   0  0  0  0  0  0  0  0  0  0  0  0
  145.3590  155.3300  135.5550 O   0  0  0  0  0  0  0  0  0  0  0  0
  144.0330  153.4660  135.4170 O   0  0  0  0  0  0  0  0  0  0  0  0
  142.7310  160.0160  132.6110 H   0  0  0  0  0  0  0  0  0  0  0  0
  147.2478  160.9404  133.4070 H   0  0  0  0  0  0  0  0  0  0  0  0
  149.3813  159.1107  132.8812 H   0  0  0  0  0  0  0  0  0  0  0  0
  149.8920  156.6662  132.5669 H   0  0  0  0  0  0  0  0  0  0  0  0
  147.7304  154.1945  131.6966 H   0  0  0  0  0  0  0  0  0  0  0  0
  149.2219  154.4326  132.6727 H   0  0  0  0  0  0  0  0  0  0  0  0
  149.0880  154.8663  136.4259 H   0  0  0  0  0  0  0  0  0  0  0  0
  147.5090  155.4374  135.7672 H   0  0  0  0  0  0  0  0  0  0  0  0
  148.0750  153.2895  137.8303 H   0  0  0  0  0  0  0  0  0  0  0  0
  146.8736  154.6329  137.8617 H   0  0  0  0  0  0  0  0  0  0  0  0
  146.1560  153.3170  135.8170 H   0  0  0  0  0  0  0  0  0  0  0  0
  145.6655  155.7195  133.0735 H   0  0  0  0  0  0  0  0  0  0  0  0
  142.2557  155.6028  135.4621 H   0  0  0  0  0  0  0  0  0  0  0  0
  142.8571  155.4118  133.7732 H   0  0  0  0  0  0  0  0  0  0  0  0
  1  2  1  0
  2  3  2  0
  2  4  1  0
  4  5  2  0
  5  6  1  0
  6  7  2  0
  7  8  1  0
  8  9  2  0
  9 10  1  0
 10 11  1  0
 11 12  2  0
 11 13  1  0
 13 14  1  0
 14 15  1  0
 15 16  1  0
  9 17  1  0
 17 18  2  0
 18 19  1  0
 19 20  1  0
 20 21  2  0
 20 22  1  0
 22 23  1  0
 23 24  1  0
 24 25  2  0
 24 26  1  0
 19  4  1  0
 18  6  1  0
  1 27  1  0
  5 28  1  0
  7 29  1  0
  8 30  1  0
 10 31  1  0
 10 32  1  0
 14 33  1  0
 14 34  1  0
 15 35  1  0
 15 36  1  0
 16 37  1  0
 17 38  1  0
 23 39  1  0
 23 40  1  0
M  CHG  2   1  -1  26  -1
M  END
>  <UniqueID>  (35) 
35

>  <SMILES>  (35) 
[NH-]C(=O)c1cc2ccc(CC(=O)OCCO)cc2n1C(=O)OCC(=O)[O-]

>  <Energy>  (35) 
70.52762633382603

>  <Genealogy>  (35) 
[NH-]C(=O)c1cc2ccc(CC(=O)OCCO)cc2n1C(=O)OCC(=O)[O-] (protonated)
[NH-]C(=O)c1cc2ccc(CC(=O)OCCO)cc2n1C(=O)OCC(=O)[O-] (3D coordinates assigned)
[NH-]C(=O)c1cc2ccc(CC(=O)OCCO)cc2n1C(=O)OCC(=O)[O-] (optimized conformer: 70.52762633382603 kcal/mol)

>  <smiles>  (35) 
NC(=O)c1cc2ccc(CC(=O)OCCO)cc2n1C(=O)OCC(=O)O

>  <score_type>  (35) 
oracle

>  <origin>  (35) 
adg

>  <m_score__min__energy>  (35) 
-5.9000000000000004

>  <m_primary>  (35) 
energy

$$$$
35:0
     RDKit          3D

 55 56  0  0  0  0  0  0  0  0999 V2000
  142.7910  153.4740  135.9260 C   0  0  0  0  0  0  0  0  0  0  0  0
  143.1850  154.5280  134.8750 C   0  0  0  0  0  0  0  0  0  0  0  0
  142.0560  155.5710  134.7800 C   0  0  0  0  0  0  0  0  0  0  0  0
  144.4900  155.2140  135.3140 C   0  0  0  0  0  0  0  0  0  0  0  0
  143.4550  153.6730  133.1850 Si  0  0  0  0  0  4  0  0  0  0  0  0
  143.9840  154.9090  131.8780 C   0  0  0  0  0  0  0  0  0  0  0  0
  141.8300  152.9600  132.5920 C   0  0  0  0  0  0  0  0  0  0  0  0
  144.5470  152.3200  133.2730 O   0  0  0  0  0  0  0  0  0  0  0  0
  145.4930  152.3480  132.2300 C   0  0  0  0  0  0  0  0  0  0  0  0
  146.8840  152.6480  132.8020 C   0  0  0  0  0  0  0  0  0  0  0  0
  147.0640  154.0990  133.2940 C   0  0  0  0  0  0  0  0  0  0  0  0
  147.9480  154.9130  132.4390 N   0  0  0  0  0  0  0  0  0  0  0  0
  147.7540  156.3280  132.6510 C   0  0  0  0  0  0  0  0  0  0  0  0
  148.8470  157.2260  132.5410 C   0  0  0  0  0  0  0  0  0  0  0  0
  148.6680  158.6040  132.7490 C   0  0  0  0  0  0  0  0  0  0  0  0
  147.3910  159.0540  133.0670 C   0  0  0  0  0  0  0  0  0  0  0  0
  146.9370  160.3330  133.2990 C   0  0  0  0  0  0  0  0  0  0  0  0
  145.5760  160.1990  133.5640 C   0  0  0  0  0  0  0  0  0  0  0  0
  144.7110  161.3300  133.9610 C   0  0  0  0  0  0  0  0  0  0  0  0
  143.3050  161.2610  133.7370 N   0  0  0  0  0  0  0  0  0  0  0  0
  145.2040  162.3770  134.4530 O   0  0  0  0  0  0  0  0  0  0  0  0
  145.2000  158.8900  133.4930 N   0  0  0  0  0  0  0  0  0  0  0  0
  143.8750  158.3470  133.6240 C   0  0  0  0  0  0  0  0  0  0  0  0
  143.2660  158.4150  134.7240 O   0  0  0  0  0  0  0  0  0  0  0  0
  143.2650  157.7150  132.5490 O   0  0  0  0  0  0  0  0  0  0  0  0
  146.3240  158.2020  133.1900 C   0  0  0  0  0  0  0  0  0  0  0  0
  146.4700  156.8270  132.9730 C   0  0  0  0  0  0  0  0  0  0  0  0
  142.9450  153.8861  136.9342 H   0  0  0  0  0  0  0  0  0  0  0  0
  141.7320  153.2059  135.7973 H   0  0  0  0  0  0  0  0  0  0  0  0
  143.4145  152.5770  135.7973 H   0  0  0  0  0  0  0  0  0  0  0  0
  141.7402  155.8627  135.7925 H   0  0  0  0  0  0  0  0  0  0  0  0
  142.4201  156.4573  134.2398 H   0  0  0  0  0  0  0  0  0  0  0  0
  141.2012  155.1379  134.2398 H   0  0  0  0  0  0  0  0  0  0  0  0
  144.5391  155.2398  136.4126 H   0  0  0  0  0  0  0  0  0  0  0  0
  145.3500  154.6514  134.9217 H   0  0  0  0  0  0  0  0  0  0  0  0
  144.5141  156.2414  134.9217 H   0  0  0  0  0  0  0  0  0  0  0  0
  144.3719  155.8153  132.3660 H   0  0  0  0  0  0  0  0  0  0  0  0
  144.7709  154.4650  131.2506 H   0  0  0  0  0  0  0  0  0  0  0  0
  143.1195  155.1718  131.2506 H   0  0  0  0  0  0  0  0  0  0  0  0
  141.2105  152.6882  133.4594 H   0  0  0  0  0  0  0  0  0  0  0  0
  141.3012  153.7088  131.9840 H   0  0  0  0  0  0  0  0  0  0  0  0
  142.0229  152.0639  131.9840 H   0  0  0  0  0  0  0  0  0  0  0  0
  145.5085  151.3714  131.7240 H   0  0  0  0  0  0  0  0  0  0  0  0
  145.2182  153.1327  131.5098 H   0  0  0  0  0  0  0  0  0  0  0  0
  147.0617  151.9711  133.6506 H   0  0  0  0  0  0  0  0  0  0  0  0
  147.6024  152.4999  131.9823 H   0  0  0  0  0  0  0  0  0  0  0  0
  146.0749  154.5792  133.3265 H   0  0  0  0  0  0  0  0  0  0  0  0
  147.5387  154.0444  134.2848 H   0  0  0  0  0  0  0  0  0  0  0  0
  147.7280  154.6960  131.4390 H   0  0  0  0  0  0  0  0  0  0  0  0
  148.9470  154.6430  132.5870 H   0  0  0  0  0  0  0  0  0  0  0  0
  149.8457  156.8391  132.2901 H   0  0  0  0  0  0  0  0  0  0  0  0
  149.5114  159.3049  132.6630 H   0  0  0  0  0  0  0  0  0  0  0  0
  147.5242  161.2629  133.2793 H   0  0  0  0  0  0  0  0  0  0  0  0
  142.7800  160.3710  133.8860 H   0  0  0  0  0  0  0  0  0  0  0  0
  145.6064  156.1501  133.0510 H   0  0  0  0  0  0  0  0  0  0  0  0
  1  2  1  0
  2  3  1  0
  2  4  1  0
  2  5  1  0
  5  6  1  0
  5  7  1  0
  5  8  1  0
  8  9  1  0
  9 10  1  0
 10 11  1  0
 11 12  1  0
 12 13  1  0
 13 14  2  0
 14 15  1  0
 15 16  2  0
 16 17  1  0
 17 18  2  0
 18 19  1  0
 19 20  1  0
 19 21  2  0
 18 22  1  0
 22 23  1  0
 23 24  2  0
 23 25  1  0
 22 26  1  0
 26 27  2  0
 27 13  1  0
 26 16  1  0
  1 28  1  0
  1 29  1  0
  1 30  1  0
  3 31  1  0
  3 32  1  0
  3 33  1  0
  4 34  1  0
  4 35  1  0
  4 36  1  0
  6 37  1  0
  6 38  1  0
  6 39  1  0
  7 40  1  0
  7 41  1  0
  7 42  1  0
  9 43  1  0
  9 44  1  0
 10 45  1  0
 10 46  1  0
 11 47  1  0
 11 48  1  0
 12 49  1  0
 12 50  1  0
 14 51  1  0
 15 52  1  0
 17 53  1  0
 20 54  1  0
 27 55  1  0
M  CHG  3  12   1  20  -1  25  -1
M  END
>  <UniqueID>  (36) 
36

>  <SMILES>  (36) 
CC(C)(C)[Si](C)(C)OCCC[NH2+]c1ccc2cc(C([NH-])=O)n(C(=O)[O-])c2c1

>  <Energy>  (36) 
76.92723968349786

>  <Genealogy>  (36) 
CC(C)(C)[Si](C)(C)OCCC[NH2+]c1ccc2cc(C([NH-])=O)n(C(=O)[O-])c2c1 (protonated)
CC(C)(C)[Si](C)(C)OCCC[NH2+]c1ccc2cc(C([NH-])=O)n(C(=O)[O-])c2c1 (3D coordinates assigned)
CC(C)(C)[Si](C)(C)OCCC[NH2+]c1ccc2cc(C([NH-])=O)n(C(=O)[O-])c2c1 (optimized conformer: 76.92723968349786 kcal/mol)

>  <smiles>  (36) 
CC(C)(C)[Si](C)(C)OCCCNc1ccc2cc(C(N)=O)n(C(=O)O)c2c1

>  <score_type>  (36) 
oracle

>  <origin>  (36) 
adg

>  <m_score__min__energy>  (36) 
-6.7400000000000002

>  <m_primary>  (36) 
energy

$$$$
36:0
     RDKit          3D

 30 31  0  0  0  0  0  0  0  0999 V2000
  149.8640  157.7900  131.8540 N   0  0  0  0  0  0  0  0  0  0  0  0
  149.2890  159.0610  132.1430 C   0  0  0  0  0  0  0  0  0  0  0  0
  149.9440  160.1070  131.8870 O   0  0  0  0  0  0  0  0  0  0  0  0
  147.9180  159.1690  132.6840 C   0  0  0  0  0  0  0  0  0  0  0  0
  147.2730  160.3860  132.8990 C   0  0  0  0  0  0  0  0  0  0  0  0
  146.0040  160.0560  133.3170 C   0  0  0  0  0  0  0  0  0  0  0  0
  144.9450  160.8760  133.6940 C   0  0  0  0  0  0  0  0  0  0  0  0
  143.7560  160.2630  134.1220 C   0  0  0  0  0  0  0  0  0  0  0  0
  143.6410  158.8480  134.1560 C   0  0  0  0  0  0  0  0  0  0  0  0
  142.3820  158.2030  134.6780 C   0  0  0  0  0  0  0  0  0  0  0  0
  141.3240  158.5370  133.8540 F   0  0  0  0  0  0  0  0  0  0  0  0
  142.5150  156.8260  134.7070 F   0  0  0  0  0  0  0  0  0  0  0  0
  142.1080  158.6370  135.9630 F   0  0  0  0  0  0  0  0  0  0  0  0
  144.7490  158.0500  133.7880 C   0  0  0  0  0  0  0  0  0  0  0  0
  145.9150  158.6880  133.3480 C   0  0  0  0  0  0  0  0  0  0  0  0
  147.0830  158.1290  132.9640 N   0  0  0  0  0  0  0  0  0  0  0  0
  147.3980  156.7290  132.9650 C   0  0  0  0  0  0  0  0  0  0  0  0
  147.3470  156.0720  131.8890 O   0  0  0  0  0  0  0  0  0  0  0  0
  147.7400  156.0940  134.1650 O   0  0  0  0  0  0  0  0  0  0  0  0
  147.6420  154.6860  134.3630 C   0  0  0  0  0  0  0  0  0  0  0  0
  146.6880  154.3830  135.4740 C   0  0  0  0  0  0  0  0  0  0  0  0
  145.6330  155.0590  135.6070 O   0  0  0  0  0  0  0  0  0  0  0  0
  146.9740  153.3670  136.3760 O   0  0  0  0  0  0  0  0  0  0  0  0
  149.2770  157.0040  131.4940 H   0  0  0  0  0  0  0  0  0  0  0  0
  147.6896  161.3950  132.7634 H   0  0  0  0  0  0  0  0  0  0  0  0
  145.0363  161.9716  133.6579 H   0  0  0  0  0  0  0  0  0  0  0  0
  142.9047  160.8857  134.4342 H   0  0  0  0  0  0  0  0  0  0  0  0
  144.6959  156.9528  133.8461 H   0  0  0  0  0  0  0  0  0  0  0  0
  147.2824  154.2136  133.4370 H   0  0  0  0  0  0  0  0  0  0  0  0
  148.6346  154.2919  134.6264 H   0  0  0  0  0  0  0  0  0  0  0  0
  1  2  1  0
  2  3  2  0
  2  4  1  0
  4  5  2  0
  5  6  1  0
  6  7  2  0
  7  8  1  0
  8  9  2  0
  9 10  1  0
 10 11  1  0
 10 12  1  0
 10 13  1  0
  9 14  1  0
 14 15  2  0
 15 16  1  0
 16 17  1  0
 17 18  2  0
 17 19  1  0
 19 20  1  0
 20 21  1  0
 21 22  2  0
 21 23  1  0
 16  4  1  0
 15  6  1  0
  1 24  1  0
  5 25  1  0
  7 26  1  0
  8 27  1  0
 14 28  1  0
 20 29  1  0
 20 30  1  0
M  CHG  2   1  -1  23  -1
M  END
>  <UniqueID>  (37) 
37

>  <SMILES>  (37) 
[NH-]C(=O)c1cc2ccc(C(F)(F)F)cc2n1C(=O)OCC(=O)[O-]

>  <Energy>  (37) 
68.0898752411103

>  <Genealogy>  (37) 
[NH-]C(=O)c1cc2ccc(C(F)(F)F)cc2n1C(=O)OCC(=O)[O-] (protonated)
[NH-]C(=O)c1cc2ccc(C(F)(F)F)cc2n1C(=O)OCC(=O)[O-] (3D coordinates assigned)
[NH-]C(=O)c1cc2ccc(C(F)(F)F)cc2n1C(=O)OCC(=O)[O-] (optimized conformer: 68.0898752411103 kcal/mol)

>  <smiles>  (37) 
NC(=O)c1cc2ccc(C(F)(F)F)cc2n1C(=O)OCC(=O)O

>  <score_type>  (37) 
oracle

>  <origin>  (37) 
adg

>  <m_score__min__energy>  (37) 
-5.6900000000000004

>  <m_primary>  (37) 
energy

$$$$
37:0
     RDKit          3D

 33 34  0  0  0  0  0  0  0  0999 V2000
  148.5110  161.4350  131.1780 N   0  0  0  0  0  0  0  0  0  0  0  0
  149.2680  160.2270  131.1720 C   0  0  0  0  0  0  0  0  0  0  0  0
  150.3240  160.1640  130.4860 O   0  0  0  0  0  0  0  0  0  0  0  0
  148.8040  159.0340  131.9100 C   0  0  0  0  0  0  0  0  0  0  0  0
  149.4650  157.8080  131.8760 C   0  0  0  0  0  0  0  0  0  0  0  0
  148.6760  156.9480  132.6050 C   0  0  0  0  0  0  0  0  0  0  0  0
  148.8590  155.6010  132.9050 C   0  0  0  0  0  0  0  0  0  0  0  0
  147.8940  154.9670  133.7060 C   0  0  0  0  0  0  0  0  0  0  0  0
  146.7780  155.6880  134.1990 C   0  0  0  0  0  0  0  0  0  0  0  0
  145.7540  155.0100  135.0630 C   0  0  0  0  0  0  0  0  0  0  0  0
  146.3660  154.4890  136.1880 F   0  0  0  0  0  0  0  0  0  0  0  0
  145.1530  153.9840  134.3560 F   0  0  0  0  0  0  0  0  0  0  0  0
  146.6270  157.0540  133.8740 C   0  0  0  0  0  0  0  0  0  0  0  0
  147.5910  157.6550  133.0560 C   0  0  0  0  0  0  0  0  0  0  0  0
  147.6570  158.9390  132.6410 N   0  0  0  0  0  0  0  0  0  0  0  0
  146.7350  159.9850  132.9820 C   0  0  0  0  0  0  0  0  0  0  0  0
  147.1090  160.9400  133.7180 O   0  0  0  0  0  0  0  0  0  0  0  0
  145.4170  159.9250  132.5200 O   0  0  0  0  0  0  0  0  0  0  0  0
  144.3530  159.3780  133.2910 C   0  0  0  0  0  0  0  0  0  0  0  0
  143.6970  160.4750  134.1270 C   0  0  0  0  0  0  0  0  0  0  0  0
  142.2310  160.2210  134.2910 C   0  0  0  0  0  0  0  0  0  0  0  0
  141.8080  159.5590  135.2750 O   0  0  0  0  0  0  0  0  0  0  0  0
  141.3280  160.7500  133.3780 O   0  0  0  0  0  0  0  0  0  0  0  0
  147.7300  161.5760  131.8550 H   0  0  0  0  0  0  0  0  0  0  0  0
  150.4156  157.5767  131.3732 H   0  0  0  0  0  0  0  0  0  0  0  0
  149.7324  155.0497  132.5266 H   0  0  0  0  0  0  0  0  0  0  0  0
  148.0059  153.9009  133.9527 H   0  0  0  0  0  0  0  0  0  0  0  0
  144.9931  155.7453  135.3637 H   0  0  0  0  0  0  0  0  0  0  0  0
  145.7721  157.6321  134.2546 H   0  0  0  0  0  0  0  0  0  0  0  0
  143.6041  158.9365  132.6170 H   0  0  0  0  0  0  0  0  0  0  0  0
  144.7536  158.6035  133.9615 H   0  0  0  0  0  0  0  0  0  0  0  0
  144.1705  160.5024  135.1195 H   0  0  0  0  0  0  0  0  0  0  0  0
  143.8301  161.4365  133.6095 H   0  0  0  0  0  0  0  0  0  0  0  0
  1  2  1  0
  2  3  2  0
  2  4  1  0
  4  5  2  0
  5  6  1  0
  6  7  2  0
  7  8  1  0
  8  9  2  0
  9 10  1  0
 10 11  1  0
 10 12  1  0
  9 13  1  0
 13 14  2  0
 14 15  1  0
 15 16  1  0
 16 17  2  0
 16 18  1  0
 18 19  1  0
 19 20  1  0
 20 21  1  0
 21 22  2  0
 21 23  1  0
 15  4  1  0
 14  6  1  0
  1 24  1  0
  5 25  1  0
  7 26  1  0
  8 27  1  0
 10 28  1  0
 13 29  1  0
 19 30  1  0
 19 31  1  0
 20 32  1  0
 20 33  1  0
M  CHG  2   1  -1  23  -1
M  END
>  <UniqueID>  (38) 
38

>  <SMILES>  (38) 
[NH-]C(=O)c1cc2ccc(C(F)F)cc2n1C(=O)OCCC(=O)[O-]

>  <Energy>  (38) 
66.2818018057631

>  <Genealogy>  (38) 
[NH-]C(=O)c1cc2ccc(C(F)F)cc2n1C(=O)OCCC(=O)[O-] (protonated)
[NH-]C(=O)c1cc2ccc(C(F)F)cc2n1C(=O)OCCC(=O)[O-] (3D coordinates assigned)
[NH-]C(=O)c1cc2ccc(C(F)F)cc2n1C(=O)OCCC(=O)[O-] (optimized conformer: 66.2818018057631 kcal/mol)

>  <smiles>  (38) 
NC(=O)c1cc2ccc(C(F)F)cc2n1C(=O)OCCC(=O)O

>  <score_type>  (38) 
oracle

>  <origin>  (38) 
adg

>  <m_score__min__energy>  (38) 
-5.7999999999999998

>  <m_primary>  (38) 
energy

$$$$
38:0
     RDKit          3D

 42 44  0  0  0  0  0  0  0  0999 V2000
  140.1530  155.2560  133.4430 C   0  0  0  0  0  0  0  0  0  0  0  0
  141.6000  155.4600  133.5550 N   0  0  0  0  0  0  0  0  0  0  0  0
  142.5130  154.3080  133.5380 C   0  0  0  0  0  0  0  0  0  0  0  0
  142.0120  153.2390  134.4560 C   0  0  0  0  0  0  0  0  0  0  0  0
  140.9750  152.5840  134.1660 O   0  0  0  0  0  0  0  0  0  0  0  0
  142.6900  152.9660  135.6380 O   0  0  0  0  0  0  0  0  0  0  0  0
  142.1140  156.8070  133.6140 C   0  0  0  0  0  0  0  0  0  0  0  0
  142.6760  157.3140  132.6060 O   0  0  0  0  0  0  0  0  0  0  0  0
  141.9840  157.5920  134.8080 N   0  0  0  0  0  0  0  0  0  0  0  0
  141.9680  158.9480  134.9190 C   0  0  0  0  0  0  0  0  0  0  0  0
  142.2030  159.9080  133.8200 C   0  0  0  0  0  0  0  0  0  0  0  0
  141.4630  159.8320  132.6040 N   0  0  0  0  0  0  0  0  0  0  0  0
  143.0870  160.7970  133.9480 O   0  0  0  0  0  0  0  0  0  0  0  0
  141.7350  159.3230  136.2420 C   0  0  0  0  0  0  0  0  0  0  0  0
  141.5980  158.1420  136.9380 C   0  0  0  0  0  0  0  0  0  0  0  0
  141.3420  157.9170  138.2870 C   0  0  0  0  0  0  0  0  0  0  0  0
  141.2350  156.5850  138.7230 C   0  0  0  0  0  0  0  0  0  0  0  0
  141.3810  155.5060  137.8130 C   0  0  0  0  0  0  0  0  0  0  0  0
  141.2740  154.1140  138.3100 C   0  0  0  0  0  0  0  0  0  0  0  0
  141.4610  153.6750  139.6140 C   0  0  0  0  0  0  0  0  0  0  0  0
  141.2450  152.3150  139.5910 C   0  0  0  0  0  0  0  0  0  0  0  0
  140.9480  152.0050  138.2790 C   0  0  0  0  0  0  0  0  0  0  0  0
  140.6110  150.6470  137.7590 C   0  0  0  0  0  0  0  0  0  0  0  0
  140.6550  150.6640  136.3600 O   0  0  0  0  0  0  0  0  0  0  0  0
  140.9680  153.0910  137.5420 O   0  0  0  0  0  0  0  0  0  0  0  0
  141.6330  155.7800  136.4480 C   0  0  0  0  0  0  0  0  0  0  0  0
  141.7460  157.1130  136.0470 C   0  0  0  0  0  0  0  0  0  0  0  0
  139.7125  155.1939  134.4490 H   0  0  0  0  0  0  0  0  0  0  0  0
  139.7048  156.0998  132.8979 H   0  0  0  0  0  0  0  0  0  0  0  0
  139.9556  154.3211  132.8979 H   0  0  0  0  0  0  0  0  0  0  0  0
  142.5753  153.9087  132.5149 H   0  0  0  0  0  0  0  0  0  0  0  0
  143.5082  154.6335  133.8751 H   0  0  0  0  0  0  0  0  0  0  0  0
  141.7040  159.1270  131.8730 H   0  0  0  0  0  0  0  0  0  0  0  0
  141.6736  160.3449  136.6444 H   0  0  0  0  0  0  0  0  0  0  0  0
  141.2270  158.7551  138.9901 H   0  0  0  0  0  0  0  0  0  0  0  0
  141.0353  156.3761  139.7844 H   0  0  0  0  0  0  0  0  0  0  0  0
  141.7274  154.2884  140.4874 H   0  0  0  0  0  0  0  0  0  0  0  0
  141.2981  151.6198  140.4418 H   0  0  0  0  0  0  0  0  0  0  0  0
  141.3390  149.9161  138.1408 H   0  0  0  0  0  0  0  0  0  0  0  0
  139.6017  150.3643  138.0928 H   0  0  0  0  0  0  0  0  0  0  0  0
  141.1080  151.5110  136.1100 H   0  0  0  0  0  0  0  0  0  0  0  0
  141.7375  154.9623  135.7197 H   0  0  0  0  0  0  0  0  0  0  0  0
  1  2  1  0
  2  3  1  0
  3  4  1  0
  4  5  2  0
  4  6  1  0
  2  7  1  0
  7  8  2  0
  7  9  1  0
  9 10  1  0
 10 11  1  0
 11 12  1  0
 11 13  2  0
 10 14  2  0
 14 15  1  0
 15 16  2  0
 16 17  1  0
 17 18  2  0
 18 19  1  0
 19 20  2  0
 20 21  1  0
 21 22  2  0
 22 23  1  0
 23 24  1  0
 22 25  1  0
 18 26  1  0
 26 27  2  0
 27  9  1  0
 27 15  1  0
 25 19  1  0
  1 28  1  0
  1 29  1  0
  1 30  1  0
  3 31  1  0
  3 32  1  0
 12 33  1  0
 14 34  1  0
 16 35  1  0
 17 36  1  0
 20 37  1  0
 21 38  1  0
 23 39  1  0
 23 40  1  0
 24 41  1  0
 26 42  1  0
M  CHG  2   6  -1  12  -1
M  END
>  <UniqueID>  (39) 
39

>  <SMILES>  (39) 
CN(CC(=O)[O-])C(=O)n1c(C([NH-])=O)cc2ccc(-c3ccc(CO)o3)cc21

>  <Energy>  (39) 
105.59231302305034

>  <Genealogy>  (39) 
CN(CC(=O)[O-])C(=O)n1c(C([NH-])=O)cc2ccc(-c3ccc(CO)o3)cc21 (protonated)
CN(CC(=O)[O-])C(=O)n1c(C([NH-])=O)cc2ccc(-c3ccc(CO)o3)cc21 (3D coordinates assigned)
CN(CC(=O)[O-])C(=O)n1c(C([NH-])=O)cc2ccc(-c3ccc(CO)o3)cc21 (optimized conformer: 105.59231302305034 kcal/mol)

>  <smiles>  (39) 
CN(CC(=O)O)C(=O)n1c(C(N)=O)cc2ccc(-c3ccc(CO)o3)cc21

>  <score_type>  (39) 
oracle

>  <origin>  (39) 
adg

>  <m_score__min__energy>  (39) 
-7.2300000000000004

>  <m_primary>  (39) 
energy

$$$$
39:0
     RDKit          3D

 32 33  0  0  0  0  0  0  0  0999 V2000
  141.5390  159.1690  134.4830 N   0  0  0  0  0  0  0  0  0  0  0  0
  142.4190  160.1450  133.9320 C   0  0  0  0  0  0  0  0  0  0  0  0
  141.9720  161.2870  133.6480 O   0  0  0  0  0  0  0  0  0  0  0  0
  143.8480  159.8220  133.7410 C   0  0  0  0  0  0  0  0  0  0  0  0
  144.8610  160.7800  133.7600 C   0  0  0  0  0  0  0  0  0  0  0  0
  146.0160  160.0980  133.4560 C   0  0  0  0  0  0  0  0  0  0  0  0
  147.3250  160.5570  133.3470 C   0  0  0  0  0  0  0  0  0  0  0  0
  148.3290  159.6200  133.0450 C   0  0  0  0  0  0  0  0  0  0  0  0
  148.0070  158.2530  132.8670 C   0  0  0  0  0  0  0  0  0  0  0  0
  149.0390  157.3090  132.5720 N   0  0  0  0  0  0  0  0  0  0  0  0
  146.6690  157.8220  132.9850 C   0  0  0  0  0  0  0  0  0  0  0  0
  145.6870  158.7790  133.2700 C   0  0  0  0  0  0  0  0  0  0  0  0
  144.3590  158.5930  133.4450 N   0  0  0  0  0  0  0  0  0  0  0  0
  143.6620  157.3400  133.3820 C   0  0  0  0  0  0  0  0  0  0  0  0
  143.3650  156.8410  132.2630 O   0  0  0  0  0  0  0  0  0  0  0  0
  143.2870  156.6960  134.5670 O   0  0  0  0  0  0  0  0  0  0  0  0
  142.6730  155.4080  134.6100 C   0  0  0  0  0  0  0  0  0  0  0  0
  141.1880  155.5010  134.2530 C   0  0  0  0  0  0  0  0  0  0  0  0
  140.9670  156.4610  133.1770 N   0  0  0  0  0  0  0  0  0  0  0  0
  141.7070  158.1490  134.3350 H   0  0  0  0  0  0  0  0  0  0  0  0
  144.7581  161.8542  133.9731 H   0  0  0  0  0  0  0  0  0  0  0  0
  147.5670  161.6201  133.4926 H   0  0  0  0  0  0  0  0  0  0  0  0
  149.3731  159.9519  132.9463 H   0  0  0  0  0  0  0  0  0  0  0  0
  149.0180  156.7530  131.6880 H   0  0  0  0  0  0  0  0  0  0  0  0
  149.8290  157.1560  133.2370 H   0  0  0  0  0  0  0  0  0  0  0  0
  146.4039  156.7622  132.8565 H   0  0  0  0  0  0  0  0  0  0  0  0
  143.1758  154.7447  133.8908 H   0  0  0  0  0  0  0  0  0  0  0  0
  142.7656  155.0075  135.6303 H   0  0  0  0  0  0  0  0  0  0  0  0
  140.8332  154.5111  133.9302 H   0  0  0  0  0  0  0  0  0  0  0  0
  140.6348  155.8382  135.1420 H   0  0  0  0  0  0  0  0  0  0  0  0
  141.3490  156.0540  132.2920 H   0  0  0  0  0  0  0  0  0  0  0  0
  141.5410  157.3100  133.3840 H   0  0  0  0  0  0  0  0  0  0  0  0
  1  2  1  0
  2  3  2  0
  2  4  1  0
  4  5  2  0
  5  6  1  0
  6  7  2  0
  7  8  1  0
  8  9  2  0
  9 10  1  0
  9 11  1  0
 11 12  2  0
 12 13  1  0
 13 14  1  0
 14 15  2  0
 14 16  1  0
 16 17  1  0
 17 18  1  0
 18 19  1  0
 13  4  1  0
 12  6  1  0
  1 20  1  0
  5 21  1  0
  7 22  1  0
  8 23  1  0
 10 24  1  0
 10 25  1  0
 11 26  1  0
 17 27  1  0
 17 28  1  0
 18 29  1  0
 18 30  1  0
 19 31  1  0
 19 32  1  0
M  CHG  1   1  -1
M  END
>  <UniqueID>  (40) 
40

>  <SMILES>  (40) 
[NH-]C(=O)c1cc2ccc(N)cc2n1C(=O)OCCN

>  <Energy>  (40) 
66.05314393814103

>  <Genealogy>  (40) 
[NH-]C(=O)c1cc2ccc(N)cc2n1C(=O)OCCN (protonated)
[NH-]C(=O)c1cc2ccc(N)cc2n1C(=O)OCCN (3D coordinates assigned)
[NH-]C(=O)c1cc2ccc(N)cc2n1C(=O)OCCN (optimized conformer: 66.05314393814103 kcal/mol)

>  <smiles>  (40) 
NCCOC(=O)n1c(C(N)=O)cc2ccc(N)cc21

>  <score_type>  (40) 
oracle

>  <origin>  (40) 
adg

>  <m_score__min__energy>  (40) 
-5.5999999999999996

>  <m_primary>  (40) 
energy

$$$$
40:0
     RDKit          3D

 43 45  0  0  0  0  0  0  0  0999 V2000
  149.5940  162.1620  130.2520 C   0  0  0  0  0  0  0  0  0  0  0  0
  150.0170  160.8500  130.6040 O   0  0  0  0  0  0  0  0  0  0  0  0
  149.1180  159.8050  130.8340 C   0  0  0  0  0  0  0  0  0  0  0  0
  149.4610  158.6070  130.6360 O   0  0  0  0  0  0  0  0  0  0  0  0
  147.7230  160.1160  131.2750 C   0  0  0  0  0  0  0  0  0  0  0  0
  147.5290  159.8060  132.7720 C   0  0  2  0  0  0  0  0  0  0  0  0
  148.8520  159.3430  133.4340 C   0  0  0  0  0  0  0  0  0  0  0  0
  148.5810  158.4520  134.4990 O   0  0  0  0  0  0  0  0  0  0  0  0
  148.1110  157.2090  133.9940 C   0  0  0  0  0  0  0  0  0  0  0  0
  146.9930  157.3690  132.9410 C   0  0  0  0  0  0  0  0  0  0  0  0
  146.5120  158.7550  132.9490 N   0  0  0  0  0  0  0  0  0  0  0  0
  145.1930  159.0880  133.4360 C   0  0  0  0  0  0  0  0  0  0  0  0
  144.7240  160.4300  133.3960 C   0  0  0  0  0  0  0  0  0  0  0  0
  143.4420  160.7590  133.8640 C   0  0  0  0  0  0  0  0  0  0  0  0
  142.6400  159.7320  134.3480 C   0  0  0  0  0  0  0  0  0  0  0  0
  141.3700  159.7750  134.8770 C   0  0  0  0  0  0  0  0  0  0  0  0
  141.0590  158.4560  135.1990 C   0  0  0  0  0  0  0  0  0  0  0  0
  139.7420  158.0360  135.7230 C   0  0  0  0  0  0  0  0  0  0  0  0
  139.6490  157.4450  137.0170 N   0  0  0  0  0  0  0  0  0  0  0  0
  138.6910  158.2280  135.0560 O   0  0  0  0  0  0  0  0  0  0  0  0
  142.0990  157.6300  134.8890 N   0  0  0  0  0  0  0  0  0  0  0  0
  142.2030  156.2140  135.1180 C   0  0  0  0  0  0  0  0  0  0  0  0
  142.4530  155.4320  134.1640 O   0  0  0  0  0  0  0  0  0  0  0  0
  142.0040  155.6940  136.3910 O   0  0  0  0  0  0  0  0  0  0  0  0
  143.0580  158.4270  134.3670 C   0  0  0  0  0  0  0  0  0  0  0  0
  144.3380  158.0730  133.9260 C   0  0  0  0  0  0  0  0  0  0  0  0
  149.4062  162.7443  131.1661 H   0  0  0  0  0  0  0  0  0  0  0  0
  150.3792  162.6536  129.6589 H   0  0  0  0  0  0  0  0  0  0  0  0
  148.6695  162.1024  129.6589 H   0  0  0  0  0  0  0  0  0  0  0  0
  147.5212  161.1832  131.1006 H   0  0  0  0  0  0  0  0  0  0  0  0
  147.0275  159.4899  130.6969 H   0  0  0  0  0  0  0  0  0  0  0  0
  147.1978  160.7354  133.2582 H   0  0  0  0  0  0  0  0  0  0  0  0
  149.4746  158.8335  132.6838 H   0  0  0  0  0  0  0  0  0  0  0  0
  149.3823  160.2223  133.8285 H   0  0  0  0  0  0  0  0  0  0  0  0
  148.9552  156.6772  133.5308 H   0  0  0  0  0  0  0  0  0  0  0  0
  147.6875  156.6490  134.8408 H   0  0  0  0  0  0  0  0  0  0  0  0
  147.3892  157.1236  131.9446 H   0  0  0  0  0  0  0  0  0  0  0  0
  146.1617  156.6898  133.1810 H   0  0  0  0  0  0  0  0  0  0  0  0
  145.3742  161.2205  132.9931 H   0  0  0  0  0  0  0  0  0  0  0  0
  143.0828  161.7986  133.8482 H   0  0  0  0  0  0  0  0  0  0  0  0
  140.7353  160.6626  135.0160 H   0  0  0  0  0  0  0  0  0  0  0  0
  140.3050  156.6860  137.3090 H   0  0  0  0  0  0  0  0  0  0  0  0
  144.6729  157.0258  133.9597 H   0  0  0  0  0  0  0  0  0  0  0  0
  1  2  1  0
  2  3  1  0
  3  4  2  0
  3  5  1  0
  5  6  1  0
  6  7  1  0
  7  8  1  0
  8  9  1  0
  9 10  1  0
 10 11  1  0
 11 12  1  0
 12 13  2  0
 13 14  1  0
 14 15  2  0
 15 16  1  0
 16 17  2  0
 17 18  1  0
 18 19  1  0
 18 20  2  0
 17 21  1  0
 21 22  1  0
 22 23  2  0
 22 24  1  0
 21 25  1  0
 25 26  2  0
 11  6  1  0
 26 12  1  0
 25 15  1  0
  1 27  1  0
  1 28  1  0
  1 29  1  0
  5 30  1  0
  5 31  1  0
  6 32  1  1
  7 33  1  0
  7 34  1  0
  9 35  1  0
  9 36  1  0
 10 37  1  0
 10 38  1  0
 13 39  1  0
 14 40  1  0
 16 41  1  0
 19 42  1  0
 26 43  1  0
M  CHG  2  19  -1  24  -1
M  END
>  <UniqueID>  (41) 
41

>  <SMILES>  (41) 
COC(=O)C[C@@H]1COCCN1c1ccc2cc(C([NH-])=O)n(C(=O)[O-])c2c1

>  <Energy>  (41) 
91.74569536530747

>  <Genealogy>  (41) 
COC(=O)CC1COCCN1c1ccc2cc(C([NH-])=O)n(C(=O)[O-])c2c1 (protonated)
COC(=O)C[C@@H]1COCCN1c1ccc2cc(C([NH-])=O)n(C(=O)[O-])c2c1 (chirality)
COC(=O)C[C@@H]1COCCN1c1ccc2cc(C([NH-])=O)n(C(=O)[O-])c2c1 (3D coordinates assigned)
COC(=O)C[C@@H]1COCCN1c1ccc2cc(C([NH-])=O)n(C(=O)[O-])c2c1 (nonaromatic ring conformer: 91.74569536530747 kcal/mol)

>  <smiles>  (41) 
COC(=O)CC1COCCN1c1ccc2cc(C(N)=O)n(C(=O)O)c2c1

>  <score_type>  (41) 
oracle

>  <origin>  (41) 
adg

>  <m_score__min__energy>  (41) 
-7.2400000000000002

>  <m_primary>  (41) 
energy

$$$$
41:0
     RDKit          3D

 36 38  0  0  0  0  0  0  0  0999 V2000
  142.6340  157.3770  132.6150 N   0  0  0  0  0  0  0  0  0  0  0  0
  143.0160  156.3690  133.5530 C   0  0  0  0  0  0  0  0  0  0  0  0
  143.5940  156.7060  134.6190 O   0  0  0  0  0  0  0  0  0  0  0  0
  142.6850  154.9480  133.3250 C   0  0  0  0  0  0  0  0  0  0  0  0
  143.6370  153.9330  133.3200 C   0  0  0  0  0  0  0  0  0  0  0  0
  142.9260  152.7690  133.1420 C   0  0  0  0  0  0  0  0  0  0  0  0
  143.3730  151.4560  133.0420 C   0  0  0  0  0  0  0  0  0  0  0  0
  142.4190  150.4510  132.8200 C   0  0  0  0  0  0  0  0  0  0  0  0
  141.0430  150.7700  132.7010 C   0  0  0  0  0  0  0  0  0  0  0  0
  140.0230  149.6740  132.4770 C   0  0  0  0  0  0  0  0  0  0  0  0
  139.6450  149.4330  130.9910 C   0  0  1  0  0  0  0  0  0  0  0  0
  140.5590  148.4710  130.2760 C   0  0  0  0  0  0  0  0  0  0  0  0
  139.7940  147.1560  130.3030 C   0  0  0  0  0  0  0  0  0  0  0  0
  138.4690  147.3820  130.7320 O   0  0  0  0  0  0  0  0  0  0  0  0
  138.2860  148.7750  130.8090 C   0  0  0  0  0  0  0  0  0  0  0  0
  140.6290  152.1200  132.7880 C   0  0  0  0  0  0  0  0  0  0  0  0
  141.5980  153.1000  133.0350 C   0  0  0  0  0  0  0  0  0  0  0  0
  141.4330  154.4380  133.1440 N   0  0  0  0  0  0  0  0  0  0  0  0
  140.2060  155.1680  132.9830 C   0  0  0  0  0  0  0  0  0  0  0  0
  140.2260  156.4150  132.8070 O   0  0  0  0  0  0  0  0  0  0  0  0
  138.9840  154.5070  133.0160 O   0  0  0  0  0  0  0  0  0  0  0  0
  142.9110  158.3710  132.7730 H   0  0  0  0  0  0  0  0  0  0  0  0
  142.0080  157.1550  131.8100 H   0  0  0  0  0  0  0  0  0  0  0  0
  144.7259  154.0389  133.4341 H   0  0  0  0  0  0  0  0  0  0  0  0
  144.4418  151.2126  133.1341 H   0  0  0  0  0  0  0  0  0  0  0  0
  142.7429  149.4030  132.7373 H   0  0  0  0  0  0  0  0  0  0  0  0
  140.4323  148.7370  132.8826 H   0  0  0  0  0  0  0  0  0  0  0  0
  139.1019  149.9990  132.9829 H   0  0  0  0  0  0  0  0  0  0  0  0
  139.6937  150.4544  130.5856 H   0  0  0  0  0  0  0  0  0  0  0  0
  140.7401  148.7979  129.2414 H   0  0  0  0  0  0  0  0  0  0  0  0
  141.5504  148.3963  130.7467 H   0  0  0  0  0  0  0  0  0  0  0  0
  139.7814  146.7202  129.2931 H   0  0  0  0  0  0  0  0  0  0  0  0
  140.2879  146.4630  131.0000 H   0  0  0  0  0  0  0  0  0  0  0  0
  137.8189  149.1393  129.8821 H   0  0  0  0  0  0  0  0  0  0  0  0
  137.6319  149.0219  131.6582 H   0  0  0  0  0  0  0  0  0  0  0  0
  139.5707  152.3933  132.6645 H   0  0  0  0  0  0  0  0  0  0  0  0
  1  2  1  0
  2  3  2  0
  2  4  1  0
  4  5  2  0
  5  6  1  0
  6  7  2  0
  7  8  1  0
  8  9  2  0
  9 10  1  0
 10 11  1  0
 11 12  1  0
 12 13  1  0
 13 14  1  0
 14 15  1  0
  9 16  1  0
 16 17  2  0
 17 18  1  0
 18 19  1  0
 19 20  2  0
 19 21  1  0
 18  4  1  0
 17  6  1  0
 15 11  1  0
  1 22  1  0
  1 23  1  0
  5 24  1  0
  7 25  1  0
  8 26  1  0
 10 27  1  0
 10 28  1  0
 11 29  1  6
 12 30  1  0
 12 31  1  0
 13 32  1  0
 13 33  1  0
 15 34  1  0
 15 35  1  0
 16 36  1  0
M  CHG  1  21  -1
M  END
>  <UniqueID>  (42) 
42

>  <SMILES>  (42) 
NC(=O)c1cc2ccc(C[C@H]3CCOC3)cc2n1C(=O)[O-]

>  <Energy>  (42) 
77.75562415192813

>  <Genealogy>  (42) 
NC(=O)c1cc2ccc(CC3CCOC3)cc2n1C(=O)[O-] (protonated)
NC(=O)c1cc2ccc(C[C@H]3CCOC3)cc2n1C(=O)[O-] (chirality)
NC(=O)c1cc2ccc(C[C@H]3CCOC3)cc2n1C(=O)[O-] (3D coordinates assigned)
NC(=O)c1cc2ccc(C[C@H]3CCOC3)cc2n1C(=O)[O-] (nonaromatic ring conformer: 77.75562415192813 kcal/mol)

>  <smiles>  (42) 
NC(=O)c1cc2ccc(CC3CCOC3)cc2n1C(=O)O

>  <score_type>  (42) 
oracle

>  <origin>  (42) 
adg

>  <m_score__min__energy>  (42) 
-7.2800000000000002

>  <m_primary>  (42) 
energy

$$$$
42:0
     RDKit          3D

 39 40  0  0  0  0  0  0  0  0999 V2000
  148.4710  158.4270  133.2690 C   0  0  0  0  0  0  0  0  0  0  0  0
  147.2620  158.7420  133.7330 C   0  0  0  0  0  0  0  0  0  0  0  0
  146.5860  160.0070  133.3900 C   0  0  0  0  0  0  0  0  0  0  0  0
  147.2540  161.0000  132.9920 O   0  0  0  0  0  0  0  0  0  0  0  0
  145.1580  160.1130  133.5020 N   0  0  0  0  0  0  0  0  0  0  0  0
  144.4320  161.2080  133.8620 C   0  0  0  0  0  0  0  0  0  0  0  0
  144.9720  162.5610  134.1090 C   0  0  0  0  0  0  0  0  0  0  0  0
  146.1730  162.7190  134.8610 N   0  0  0  0  0  0  0  0  0  0  0  0
  144.3730  163.5830  133.6830 O   0  0  0  0  0  0  0  0  0  0  0  0
  143.0740  160.8960  133.9140 C   0  0  0  0  0  0  0  0  0  0  0  0
  142.9920  159.5640  133.5740 C   0  0  0  0  0  0  0  0  0  0  0  0
  141.8820  158.7310  133.4790 C   0  0  0  0  0  0  0  0  0  0  0  0
  142.0960  157.3860  133.1370 C   0  0  0  0  0  0  0  0  0  0  0  0
  143.4100  156.8910  132.9150 C   0  0  0  0  0  0  0  0  0  0  0  0
  143.6190  155.4990  132.5700 N   0  0  0  0  0  0  0  0  0  0  0  0
  143.6780  154.5770  133.7380 C   0  0  0  0  0  0  0  0  0  0  0  0
  144.6620  153.4080  133.4860 C   0  0  0  0  0  0  0  0  0  0  0  0
  144.1200  155.3230  135.0220 C   0  0  0  0  0  0  0  0  0  0  0  0
  142.2860  154.0050  133.9580 C   0  0  0  0  0  0  0  0  0  0  0  0
  142.0430  153.2870  134.9660 O   0  0  0  0  0  0  0  0  0  0  0  0
  141.2890  154.1820  133.0040 O   0  0  0  0  0  0  0  0  0  0  0  0
  144.5090  157.7770  133.0070 C   0  0  0  0  0  0  0  0  0  0  0  0
  144.2630  159.1150  133.3320 C   0  0  0  0  0  0  0  0  0  0  0  0
  148.9368  157.4715  133.5517 H   0  0  0  0  0  0  0  0  0  0  0  0
  149.0030  159.1225  132.6033 H   0  0  0  0  0  0  0  0  0  0  0  0
  146.7487  158.0312  134.3973 H   0  0  0  0  0  0  0  0  0  0  0  0
  147.1080  162.6220  134.4060 H   0  0  0  0  0  0  0  0  0  0  0  0
  142.2443  161.5706  134.1719 H   0  0  0  0  0  0  0  0  0  0  0  0
  140.8680  159.1141  133.6660 H   0  0  0  0  0  0  0  0  0  0  0  0
  141.2361  156.7069  133.0396 H   0  0  0  0  0  0  0  0  0  0  0  0
  144.5070  155.4220  132.0190 H   0  0  0  0  0  0  0  0  0  0  0  0
  142.8530  155.1940  131.9250 H   0  0  0  0  0  0  0  0  0  0  0  0
  145.0037  153.0021  134.4496 H   0  0  0  0  0  0  0  0  0  0  0  0
  144.1535  152.6174  132.9147 H   0  0  0  0  0  0  0  0  0  0  0  0
  145.5278  153.7742  132.9147 H   0  0  0  0  0  0  0  0  0  0  0  0
  143.7865  154.7601  135.9063 H   0  0  0  0  0  0  0  0  0  0  0  0
  145.2163  155.4114  135.0357 H   0  0  0  0  0  0  0  0  0  0  0  0
  143.6709  156.3271  135.0357 H   0  0  0  0  0  0  0  0  0  0  0  0
  145.5343  157.4215  132.8270 H   0  0  0  0  0  0  0  0  0  0  0  0
  1  2  2  0
  2  3  1  0
  3  4  2  0
  3  5  1  0
  5  6  1  0
  6  7  1  0
  7  8  1  0
  7  9  2  0
  6 10  2  0
 10 11  1  0
 11 12  2  0
 12 13  1  0
 13 14  2  0
 14 15  1  0
 15 16  1  0
 16 17  1  0
 16 18  1  0
 16 19  1  0
 19 20  2  0
 19 21  1  0
 14 22  1  0
 22 23  2  0
 23  5  1  0
 23 11  1  0
  1 24  1  0
  1 25  1  0
  2 26  1  0
  8 27  1  0
 10 28  1  0
 12 29  1  0
 13 30  1  0
 15 31  1  0
 15 32  1  0
 17 33  1  0
 17 34  1  0
 17 35  1  0
 18 36  1  0
 18 37  1  0
 18 38  1  0
 22 39  1  0
M  CHG  3   8  -1  15   1  21  -1
M  END
>  <UniqueID>  (43) 
43

>  <SMILES>  (43) 
C=CC(=O)n1c(C([NH-])=O)cc2ccc([NH2+]C(C)(C)C(=O)[O-])cc21

>  <Energy>  (43) 
80.65488153132517

>  <Genealogy>  (43) 
C=CC(=O)n1c(C([NH-])=O)cc2ccc([NH2+]C(C)(C)C(=O)[O-])cc21 (protonated)
C=CC(=O)n1c(C([NH-])=O)cc2ccc([NH2+]C(C)(C)C(=O)[O-])cc21 (3D coordinates assigned)
C=CC(=O)n1c(C([NH-])=O)cc2ccc([NH2+]C(C)(C)C(=O)[O-])cc21 (optimized conformer: 80.65488153132517 kcal/mol)

>  <smiles>  (43) 
C=CC(=O)n1c(C(N)=O)cc2ccc(NC(C)(C)C(=O)O)cc21

>  <score_type>  (43) 
oracle

>  <origin>  (43) 
adg

>  <m_score__min__energy>  (43) 
-6.9100000000000001

>  <m_primary>  (43) 
energy

$$$$
43:0
     RDKit          3D

 54 55  0  0  0  0  0  0  0  0999 V2000
  149.6270  150.9850  134.0510 C   0  0  0  0  0  0  0  0  0  0  0  0
  149.1080  151.6260  132.3750 Si  0  0  0  0  0  4  0  0  0  0  0  0
  149.5290  153.4420  132.2620 C   0  0  0  0  0  0  0  0  0  0  0  0
  150.0310  150.6860  131.0510 C   0  0  0  0  0  0  0  0  0  0  0  0
  147.2590  151.3800  132.1830 C   0  0  0  0  0  0  0  0  0  0  0  0
  146.4680  152.6090  132.6300 C   0  0  0  0  0  0  0  0  0  0  0  0
  145.0740  152.3790  132.4410 O   0  0  0  0  0  0  0  0  0  0  0  0
  144.1550  153.4120  132.2330 C   0  0  0  0  0  0  0  0  0  0  0  0
  144.2250  154.1390  131.2030 O   0  0  0  0  0  0  0  0  0  0  0  0
  143.1410  153.7140  133.2870 C   0  0  0  0  0  0  0  0  0  0  0  0
  142.9320  155.2000  133.3550 C   0  0  0  0  0  0  0  0  0  0  0  0
  141.6350  155.7310  133.5640 C   0  0  0  0  0  0  0  0  0  0  0  0
  141.4420  157.1170  133.6930 C   0  0  0  0  0  0  0  0  0  0  0  0
  142.5630  157.9400  133.6330 C   0  0  0  0  0  0  0  0  0  0  0  0
  142.6630  159.3090  133.7300 C   0  0  0  0  0  0  0  0  0  0  0  0
  144.0230  159.5900  133.6120 C   0  0  0  0  0  0  0  0  0  0  0  0
  144.5920  160.9500  133.7190 C   0  0  0  0  0  0  0  0  0  0  0  0
  146.0060  161.1250  133.7820 N   0  0  0  0  0  0  0  0  0  0  0  0
  143.8450  161.9630  133.7350 O   0  0  0  0  0  0  0  0  0  0  0  0
  144.7350  158.4400  133.4490 N   0  0  0  0  0  0  0  0  0  0  0  0
  146.1550  158.3120  133.2670 C   0  0  0  0  0  0  0  0  0  0  0  0
  146.7150  158.9150  132.3140 O   0  0  0  0  0  0  0  0  0  0  0  0
  146.9860  157.4530  134.1750 C   0  0  0  0  0  0  0  0  0  0  0  0
  146.8480  156.0930  133.8140 O   0  0  0  0  0  0  0  0  0  0  0  0
  147.5740  155.2710  134.7060 C   0  0  0  0  0  0  0  0  0  0  0  0
  146.6370  154.4870  135.5710 C   0  0  0  0  0  0  0  0  0  0  0  0
  147.0650  153.5190  136.2510 O   0  0  0  0  0  0  0  0  0  0  0  0
  145.2860  154.8100  135.6060 O   0  0  0  0  0  0  0  0  0  0  0  0
  143.8270  157.4390  133.4590 C   0  0  0  0  0  0  0  0  0  0  0  0
  144.0450  156.0670  133.2980 C   0  0  0  0  0  0  0  0  0  0  0  0
  149.1433  151.5824  134.8379 H   0  0  0  0  0  0  0  0  0  0  0  0
  149.3236  149.9324  134.1510 H   0  0  0  0  0  0  0  0  0  0  0  0
  150.7197  151.0627  134.1510 H   0  0  0  0  0  0  0  0  0  0  0  0
  149.6258  153.8597  133.2750 H   0  0  0  0  0  0  0  0  0  0  0  0
  150.4795  153.5651  131.7222 H   0  0  0  0  0  0  0  0  0  0  0  0
  148.7296  153.9708  131.7222 H   0  0  0  0  0  0  0  0  0  0  0  0
  150.7273  149.9769  131.5226 H   0  0  0  0  0  0  0  0  0  0  0  0
  149.3138  150.1345  130.4253 H   0  0  0  0  0  0  0  0  0  0  0  0
  150.5955  151.3930  130.4253 H   0  0  0  0  0  0  0  0  0  0  0  0
  147.0355  151.1795  131.1248 H   0  0  0  0  0  0  0  0  0  0  0  0
  146.9610  150.5342  132.8200 H   0  0  0  0  0  0  0  0  0  0  0  0
  146.6653  152.8033  133.6946 H   0  0  0  0  0  0  0  0  0  0  0  0
  146.7778  153.4785  132.0317 H   0  0  0  0  0  0  0  0  0  0  0  0
  142.1909  153.2193  133.0369 H   0  0  0  0  0  0  0  0  0  0  0  0
  143.4961  153.3443  134.2603 H   0  0  0  0  0  0  0  0  0  0  0  0
  140.7715  155.0523  133.6258 H   0  0  0  0  0  0  0  0  0  0  0  0
  140.4362  157.5385  133.8369 H   0  0  0  0  0  0  0  0  0  0  0  0
  141.8433  160.0289  133.8708 H   0  0  0  0  0  0  0  0  0  0  0  0
  146.6010  160.9970  132.9330 H   0  0  0  0  0  0  0  0  0  0  0  0
  148.0424  157.7474  134.0889 H   0  0  0  0  0  0  0  0  0  0  0  0
  146.6445  157.5878  135.2119 H   0  0  0  0  0  0  0  0  0  0  0  0
  148.2023  154.5763  134.1292 H   0  0  0  0  0  0  0  0  0  0  0  0
  148.2037  155.9067  135.3458 H   0  0  0  0  0  0  0  0  0  0  0  0
  145.0584  155.6731  133.1311 H   0  0  0  0  0  0  0  0  0  0  0  0
  1  2  1  0
  2  3  1  0
  2  4  1  0
  2  5  1  0
  5  6  1  0
  6  7  1  0
  7  8  1  0
  8  9  2  0
  8 10  1  0
 10 11  1  0
 11 12  2  0
 12 13  1  0
 13 14  2  0
 14 15  1  0
 15 16  2  0
 16 17  1  0
 17 18  1  0
 17 19  2  0
 16 20  1  0
 20 21  1  0
 21 22  2  0
 21 23  1  0
 23 24  1  0
 24 25  1  0
 25 26  1  0
 26 27  2  0
 26 28  1  0
 20 29  1  0
 29 30  2  0
 30 11  1  0
 29 14  1  0
  1 31  1  0
  1 32  1  0
  1 33  1  0
  3 34  1  0
  3 35  1  0
  3 36  1  0
  4 37  1  0
  4 38  1  0
  4 39  1  0
  5 40  1  0
  5 41  1  0
  6 42  1  0
  6 43  1  0
 10 44  1  0
 10 45  1  0
 12 46  1  0
 13 47  1  0
 15 48  1  0
 18 49  1  0
 23 50  1  0
 23 51  1  0
 25 52  1  0
 25 53  1  0
 30 54  1  0
M  CHG  2  18  -1  28  -1
M  END
>  <UniqueID>  (44) 
44

>  <SMILES>  (44) 
C[Si](C)(C)CCOC(=O)Cc1ccc2cc(C([NH-])=O)n(C(=O)COCC(=O)[O-])c2c1

>  <Energy>  (44) 
69.76900158566242

>  <Genealogy>  (44) 
C[Si](C)(C)CCOC(=O)Cc1ccc2cc(C([NH-])=O)n(C(=O)COCC(=O)[O-])c2c1 (protonated)
C[Si](C)(C)CCOC(=O)Cc1ccc2cc(C([NH-])=O)n(C(=O)COCC(=O)[O-])c2c1 (3D coordinates assigned)
C[Si](C)(C)CCOC(=O)Cc1ccc2cc(C([NH-])=O)n(C(=O)COCC(=O)[O-])c2c1 (optimized conformer: 69.76900158566242 kcal/mol)

>  <smiles>  (44) 
C[Si](C)(C)CCOC(=O)Cc1ccc2cc(C(N)=O)n(C(=O)COCC(=O)O)c2c1

>  <score_type>  (44) 
oracle

>  <origin>  (44) 
adg

>  <m_score__min__energy>  (44) 
-7.8399999999999999

>  <m_primary>  (44) 
energy

$$$$
44:0
     RDKit          3D

 40 41  0  0  0  0  0  0  0  0999 V2000
  139.5670  150.1780  131.9360 C   0  0  0  0  0  0  0  0  0  0  0  0
  140.8570  150.6180  132.6490 C   0  0  2  0  0  0  0  0  0  0  0  0
  141.3190  151.9440  132.1860 N   0  0  0  0  0  0  0  0  0  0  0  0
  141.4800  152.8640  133.2870 C   0  0  0  0  0  0  0  0  0  0  0  0
  142.2450  152.4970  134.4260 C   0  0  0  0  0  0  0  0  0  0  0  0
  142.4130  153.3900  135.4970 C   0  0  0  0  0  0  0  0  0  0  0  0
  141.8110  154.6410  135.4040 C   0  0  0  0  0  0  0  0  0  0  0  0
  141.7970  155.6910  136.2950 C   0  0  0  0  0  0  0  0  0  0  0  0
  141.0360  156.6860  135.6830 C   0  0  0  0  0  0  0  0  0  0  0  0
  140.8090  158.0250  136.2630 C   0  0  0  0  0  0  0  0  0  0  0  0
  141.6830  159.1020  135.9320 N   0  0  0  0  0  0  0  0  0  0  0  0
  139.8340  158.2350  137.0320 O   0  0  0  0  0  0  0  0  0  0  0  0
  140.5950  156.2640  134.4660 N   0  0  0  0  0  0  0  0  0  0  0  0
  139.7390  156.9550  133.5470 C   0  0  0  0  0  0  0  0  0  0  0  0
  138.5650  156.5350  133.3570 O   0  0  0  0  0  0  0  0  0  0  0  0
  140.1870  158.2490  132.9210 C   0  0  1  0  0  0  0  0  0  0  0  0
  139.8840  159.3330  133.7610 O   0  0  0  0  0  0  0  0  0  0  0  0
  141.6950  158.2150  132.6470 C   0  0  0  0  0  0  0  0  0  0  0  0
  142.3690  159.1930  133.3940 O   0  0  0  0  0  0  0  0  0  0  0  0
  141.0780  155.0150  134.3080 C   0  0  0  0  0  0  0  0  0  0  0  0
  140.8850  154.1460  133.2310 C   0  0  0  0  0  0  0  0  0  0  0  0
  141.9310  149.5860  132.4230 C   0  0  0  0  0  0  0  0  0  0  0  0
  141.7150  148.3730  132.6810 O   0  0  0  0  0  0  0  0  0  0  0  0
  143.1750  149.9730  131.9410 O   0  0  0  0  0  0  0  0  0  0  0  0
  138.8045  149.9179  132.6850 H   0  0  0  0  0  0  0  0  0  0  0  0
  139.1970  151.0008  131.3066 H   0  0  0  0  0  0  0  0  0  0  0  0
  139.7769  149.3006  131.3066 H   0  0  0  0  0  0  0  0  0  0  0  0
  140.6404  150.7041  133.7240 H   0  0  0  0  0  0  0  0  0  0  0  0
  140.6480  152.3340  131.4810 H   0  0  0  0  0  0  0  0  0  0  0  0
  142.2450  151.8430  131.7060 H   0  0  0  0  0  0  0  0  0  0  0  0
  142.7114  151.5017  134.4699 H   0  0  0  0  0  0  0  0  0  0  0  0
  143.0024  153.1090  136.3822 H   0  0  0  0  0  0  0  0  0  0  0  0
  142.2832  155.7352  137.2807 H   0  0  0  0  0  0  0  0  0  0  0  0
  141.4010  159.8280  135.2370 H   0  0  0  0  0  0  0  0  0  0  0  0
  139.6507  158.3741  131.9688 H   0  0  0  0  0  0  0  0  0  0  0  0
  140.5150  159.2870  134.5270 H   0  0  0  0  0  0  0  0  0  0  0  0
  142.0866  157.2234  132.9181 H   0  0  0  0  0  0  0  0  0  0  0  0
  141.8594  158.4183  131.5785 H   0  0  0  0  0  0  0  0  0  0  0  0
  141.9850  159.1700  134.3090 H   0  0  0  0  0  0  0  0  0  0  0  0
  140.2851  154.4513  132.3610 H   0  0  0  0  0  0  0  0  0  0  0  0
  1  2  1  0
  2  3  1  0
  3  4  1  0
  4  5  2  0
  5  6  1  0
  6  7  2  0
  7  8  1  0
  8  9  2  0
  9 10  1  0
 10 11  1  0
 10 12  2  0
  9 13  1  0
 13 14  1  0
 14 15  2  0
 14 16  1  0
 16 17  1  0
 16 18  1  0
 18 19  1  0
 13 20  1  0
 20 21  2  0
  2 22  1  0
 22 23  2  0
 22 24  1  0
 21  4  1  0
 20  7  1  0
  1 25  1  0
  1 26  1  0
  1 27  1  0
  2 28  1  1
  3 29  1  0
  3 30  1  0
  5 31  1  0
  6 32  1  0
  8 33  1  0
 11 34  1  0
 16 35  1  6
 17 36  1  0
 18 37  1  0
 18 38  1  0
 19 39  1  0
 21 40  1  0
M  CHG  3   3   1  11  -1  24  -1
M  END
>  <UniqueID>  (45) 
45

>  <SMILES>  (45) 
C[C@H]([NH2+]c1ccc2cc(C([NH-])=O)n(C(=O)[C@@H](O)CO)c2c1)C(=O)[O-]

>  <Energy>  (45) 
77.26428028764758

>  <Genealogy>  (45) 
C[C@H]([NH2+]c1ccc2cc(C([NH-])=O)n(C(=O)C(O)CO)c2c1)C(=O)[O-] (protonated)
C[C@H]([NH2+]c1ccc2cc(C([NH-])=O)n(C(=O)[C@@H](O)CO)c2c1)C(=O)[O-] (chirality)
C[C@H]([NH2+]c1ccc2cc(C([NH-])=O)n(C(=O)[C@@H](O)CO)c2c1)C(=O)[O-] (3D coordinates assigned)
C[C@H]([NH2+]c1ccc2cc(C([NH-])=O)n(C(=O)[C@@H](O)CO)c2c1)C(=O)[O-] (optimized conformer: 77.26428028764758 kcal/mol)

>  <smiles>  (45) 
C[C@H](Nc1ccc2cc(C(N)=O)n(C(=O)C(O)CO)c2c1)C(=O)O

>  <score_type>  (45) 
oracle

>  <origin>  (45) 
adg

>  <m_score__min__energy>  (45) 
-5.4900000000000002

>  <m_primary>  (45) 
energy

$$$$
45:0
     RDKit          3D

 34 36  0  0  0  0  0  0  0  0999 V2000
  148.5760  157.6500  134.5230 N   0  0  0  0  0  0  0  0  0  0  0  0
  148.0110  158.5740  133.5930 C   0  0  0  0  0  0  0  0  0  0  0  0
  148.7480  159.0890  132.7110 O   0  0  0  0  0  0  0  0  0  0  0  0
  146.5670  158.8840  133.6030 C   0  0  0  0  0  0  0  0  0  0  0  0
  146.0630  160.1740  133.7370 C   0  0  0  0  0  0  0  0  0  0  0  0
  144.6970  160.0430  133.6320 C   0  0  0  0  0  0  0  0  0  0  0  0
  143.6990  161.0080  133.7070 C   0  0  0  0  0  0  0  0  0  0  0  0
  142.3640  160.5870  133.6050 C   0  0  0  0  0  0  0  0  0  0  0  0
  142.0460  159.2130  133.4400 C   0  0  0  0  0  0  0  0  0  0  0  0
  140.6290  158.7890  133.3510 C   0  0  0  0  0  0  0  0  0  0  0  0
  139.8060  159.1430  132.3370 N   0  0  0  0  0  0  0  0  0  0  0  0
  138.5560  158.6290  132.4840 C   0  0  0  0  0  0  0  0  0  0  0  0
  138.3650  157.8550  133.6210 C   0  0  0  0  0  0  0  0  0  0  0  0
  139.8170  157.8200  134.4650 S   0  0  0  0  0  0  0  0  0  0  0  0
  143.0920  158.2610  133.3710 C   0  0  0  0  0  0  0  0  0  0  0  0
  144.4150  158.7130  133.4530 C   0  0  0  0  0  0  0  0  0  0  0  0
  145.5550  157.9860  133.4350 N   0  0  0  0  0  0  0  0  0  0  0  0
  145.6660  156.5540  133.3850 C   0  0  0  0  0  0  0  0  0  0  0  0
  144.9130  155.8870  132.6240 O   0  0  0  0  0  0  0  0  0  0  0  0
  146.6120  155.9030  134.1820 O   0  0  0  0  0  0  0  0  0  0  0  0
  146.4260  154.5800  134.6730 C   0  0  0  0  0  0  0  0  0  0  0  0
  147.2170  154.4010  135.9240 C   0  0  0  0  0  0  0  0  0  0  0  0
  148.1010  155.2400  136.2430 O   0  0  0  0  0  0  0  0  0  0  0  0
  146.9930  153.2950  136.7340 O   0  0  0  0  0  0  0  0  0  0  0  0
  149.6050  157.4700  134.5250 H   0  0  0  0  0  0  0  0  0  0  0  0
  147.9710  157.0860  135.1580 H   0  0  0  0  0  0  0  0  0  0  0  0
  146.6344  161.1008  133.8935 H   0  0  0  0  0  0  0  0  0  0  0  0
  143.9485  162.0707  133.8424 H   0  0  0  0  0  0  0  0  0  0  0  0
  141.5545  161.3302  133.6534 H   0  0  0  0  0  0  0  0  0  0  0  0
  137.7535  158.8130  131.7546 H   0  0  0  0  0  0  0  0  0  0  0  0
  137.4308  157.3547  133.9160 H   0  0  0  0  0  0  0  0  0  0  0  0
  142.8702  157.1898  133.2555 H   0  0  0  0  0  0  0  0  0  0  0  0
  145.3597  154.4140  134.8860 H   0  0  0  0  0  0  0  0  0  0  0  0
  146.7647  153.8562  133.9171 H   0  0  0  0  0  0  0  0  0  0  0  0
  1  2  1  0
  2  3  2  0
  2  4  1  0
  4  5  2  0
  5  6  1  0
  6  7  2  0
  7  8  1  0
  8  9  2  0
  9 10  1  0
 10 11  2  0
 11 12  1  0
 12 13  2  0
 13 14  1  0
  9 15  1  0
 15 16  2  0
 16 17  1  0
 17 18  1  0
 18 19  2  0
 18 20  1  0
 20 21  1  0
 21 22  1  0
 22 23  2  0
 22 24  1  0
 17  4  1  0
 16  6  1  0
 14 10  1  0
  1 25  1  0
  1 26  1  0
  5 27  1  0
  7 28  1  0
  8 29  1  0
 12 30  1  0
 13 31  1  0
 15 32  1  0
 21 33  1  0
 21 34  1  0
M  CHG  1  24  -1
M  END
>  <UniqueID>  (46) 
46

>  <SMILES>  (46) 
NC(=O)c1cc2ccc(-c3nccs3)cc2n1C(=O)OCC(=O)[O-]

>  <Energy>  (46) 
103.3760680559341

>  <Genealogy>  (46) 
NC(=O)c1cc2ccc(-c3nccs3)cc2n1C(=O)OCC(=O)[O-] (protonated)
NC(=O)c1cc2ccc(-c3nccs3)cc2n1C(=O)OCC(=O)[O-] (3D coordinates assigned)
NC(=O)c1cc2ccc(-c3nccs3)cc2n1C(=O)OCC(=O)[O-] (optimized conformer: 103.3760680559341 kcal/mol)

>  <smiles>  (46) 
NC(=O)c1cc2ccc(-c3nccs3)cc2n1C(=O)OCC(=O)O

>  <score_type>  (46) 
oracle

>  <origin>  (46) 
adg

>  <m_score__min__energy>  (46) 
-7.2199999999999998

>  <m_primary>  (46) 
energy

$$$$
46:0
     RDKit          3D

 44 45  0  0  0  0  0  0  0  0999 V2000
  147.0080  153.6220  133.0320 C   0  0  0  0  0  0  0  0  0  0  0  0
  148.0840  154.6050  132.8540 N   0  0  0  0  0  0  0  0  0  0  0  0
  149.4380  154.1240  132.5520 C   0  0  0  0  0  0  0  0  0  0  0  0
  147.8130  156.0290  132.9730 C   0  0  0  0  0  0  0  0  0  0  0  0
  148.8650  156.9820  132.8550 C   0  0  0  0  0  0  0  0  0  0  0  0
  148.6120  158.3590  132.9600 C   0  0  0  0  0  0  0  0  0  0  0  0
  147.3050  158.7680  133.1890 C   0  0  0  0  0  0  0  0  0  0  0  0
  146.7820  160.0360  133.3070 C   0  0  0  0  0  0  0  0  0  0  0  0
  145.4170  159.8540  133.5210 C   0  0  0  0  0  0  0  0  0  0  0  0
  144.4820  160.9650  133.7950 C   0  0  0  0  0  0  0  0  0  0  0  0
  143.0720  160.7730  133.7110 N   0  0  0  0  0  0  0  0  0  0  0  0
  144.9320  162.0850  134.1550 O   0  0  0  0  0  0  0  0  0  0  0  0
  145.1080  158.5260  133.5240 N   0  0  0  0  0  0  0  0  0  0  0  0
  143.8100  157.9230  133.6310 C   0  0  0  0  0  0  0  0  0  0  0  0
  143.0430  157.8990  132.6290 O   0  0  0  0  0  0  0  0  0  0  0  0
  143.4140  157.3380  134.8380 O   0  0  0  0  0  0  0  0  0  0  0  0
  142.2000  156.6080  134.9960 C   0  0  0  0  0  0  0  0  0  0  0  0
  141.0110  157.5170  134.8250 C   0  0  0  0  0  0  0  0  0  0  0  0
  139.8880  157.0350  134.8970 O   0  0  0  0  0  0  0  0  0  0  0  0
  141.1820  158.9300  134.5490 N   0  0  0  0  0  0  0  0  0  0  0  0
  140.2520  159.3530  133.4900 C   0  0  0  0  0  0  0  0  0  0  0  0
  140.9730  159.7240  135.7700 C   0  0  0  0  0  0  0  0  0  0  0  0
  146.2760  157.8760  133.3230 C   0  0  0  0  0  0  0  0  0  0  0  0
  146.4930  156.4980  133.2070 C   0  0  0  0  0  0  0  0  0  0  0  0
  146.8321  153.4613  134.1059 H   0  0  0  0  0  0  0  0  0  0  0  0
  146.0871  153.9972  132.5617 H   0  0  0  0  0  0  0  0  0  0  0  0
  147.2987  152.6710  132.5617 H   0  0  0  0  0  0  0  0  0  0  0  0
  149.9771  153.9325  133.4915 H   0  0  0  0  0  0  0  0  0  0  0  0
  149.3750  153.1932  131.9691 H   0  0  0  0  0  0  0  0  0  0  0  0
  149.9763  154.8859  131.9691 H   0  0  0  0  0  0  0  0  0  0  0  0
  149.8932  156.6332  132.6786 H   0  0  0  0  0  0  0  0  0  0  0  0
  149.4258  159.0928  132.8636 H   0  0  0  0  0  0  0  0  0  0  0  0
  147.3260  160.9901  133.2455 H   0  0  0  0  0  0  0  0  0  0  0  0
  142.6710  159.9470  133.2140 H   0  0  0  0  0  0  0  0  0  0  0  0
  142.1568  155.8097  134.2405 H   0  0  0  0  0  0  0  0  0  0  0  0
  142.1743  156.1755  136.0071 H   0  0  0  0  0  0  0  0  0  0  0  0
  142.1570  159.1140  134.2120 H   0  0  0  0  0  0  0  0  0  0  0  0
  139.3409  159.7674  133.9462 H   0  0  0  0  0  0  0  0  0  0  0  0
  140.7318  160.1214  132.8661 H   0  0  0  0  0  0  0  0  0  0  0  0
  139.9881  158.4863  132.8661 H   0  0  0  0  0  0  0  0  0  0  0  0
  141.1400  159.0896  136.6530 H   0  0  0  0  0  0  0  0  0  0  0  0
  141.6799  160.5666  135.7849 H   0  0  0  0  0  0  0  0  0  0  0  0
  139.9428  160.1094  135.7849 H   0  0  0  0  0  0  0  0  0  0  0  0
  145.6554  155.7904  133.2956 H   0  0  0  0  0  0  0  0  0  0  0  0
  1  2  1  0
  2  3  1  0
  2  4  1  0
  4  5  2  0
  5  6  1  0
  6  7  2  0
  7  8  1  0
  8  9  2  0
  9 10  1  0
 10 11  1  0
 10 12  2  0
  9 13  1  0
 13 14  1  0
 14 15  2  0
 14 16  1  0
 16 17  1  0
 17 18  1  0
 18 19  2  0
 18 20  1  0
 20 21  1  0
 20 22  1  0
 13 23  1  0
 23 24  2  0
 24  4  1  0
 23  7  1  0
  1 25  1  0
  1 26  1  0
  1 27  1  0
  3 28  1  0
  3 29  1  0
  3 30  1  0
  5 31  1  0
  6 32  1  0
  8 33  1  0
 11 34  1  0
 17 35  1  0
 17 36  1  0
 20 37  1  0
 21 38  1  0
 21 39  1  0
 21 40  1  0
 22 41  1  0
 22 42  1  0
 22 43  1  0
 24 44  1  0
M  CHG  2  11  -1  20   1
M  END
>  <UniqueID>  (47) 
47

>  <SMILES>  (47) 
CN(C)c1ccc2cc(C([NH-])=O)n(C(=O)OCC(=O)[NH+](C)C)c2c1

>  <Energy>  (47) 
80.85325945983729

>  <Genealogy>  (47) 
CN(C)c1ccc2cc(C([NH-])=O)n(C(=O)OCC(=O)[NH+](C)C)c2c1 (protonated)
CN(C)c1ccc2cc(C([NH-])=O)n(C(=O)OCC(=O)[NH+](C)C)c2c1 (3D coordinates assigned)
CN(C)c1ccc2cc(C([NH-])=O)n(C(=O)OCC(=O)[NH+](C)C)c2c1 (optimized conformer: 80.85325945983729 kcal/mol)

>  <smiles>  (47) 
CN(C)C(=O)COC(=O)n1c(C(N)=O)cc2ccc(N(C)C)cc21

>  <score_type>  (47) 
oracle

>  <origin>  (47) 
adg

>  <m_score__min__energy>  (47) 
-5.75

>  <m_primary>  (47) 
energy

$$$$
47:0
     RDKit          3D

 37 38  0  0  0  0  0  0  0  0999 V2000
  148.9590  154.3470  132.5910 C   0  0  0  0  0  0  0  0  0  0  0  0
  147.6520  154.9600  132.8610 N   0  0  0  0  0  0  0  0  0  0  0  0
  146.4730  154.0930  132.9740 C   0  0  0  0  0  0  0  0  0  0  0  0
  147.5290  156.3990  133.0110 C   0  0  0  0  0  0  0  0  0  0  0  0
  148.6650  157.2450  132.8670 C   0  0  0  0  0  0  0  0  0  0  0  0
  148.5540  158.6380  132.9980 C   0  0  0  0  0  0  0  0  0  0  0  0
  147.3030  159.1710  133.2810 C   0  0  0  0  0  0  0  0  0  0  0  0
  146.9120  160.4820  133.4310 C   0  0  0  0  0  0  0  0  0  0  0  0
  145.5450  160.4310  133.6890 C   0  0  0  0  0  0  0  0  0  0  0  0
  144.7270  161.6250  133.9930 C   0  0  0  0  0  0  0  0  0  0  0  0
  143.3270  161.6120  133.7260 N   0  0  0  0  0  0  0  0  0  0  0  0
  145.2580  162.6690  134.4550 O   0  0  0  0  0  0  0  0  0  0  0  0
  145.1070  159.1400  133.6940 N   0  0  0  0  0  0  0  0  0  0  0  0
  143.7590  158.6710  133.8450 C   0  0  0  0  0  0  0  0  0  0  0  0
  143.1280  158.9070  134.9120 O   0  0  0  0  0  0  0  0  0  0  0  0
  143.1560  157.9420  132.8120 O   0  0  0  0  0  0  0  0  0  0  0  0
  141.7950  157.5190  132.8330 C   0  0  0  0  0  0  0  0  0  0  0  0
  140.8660  158.6560  132.4140 C   0  0  0  0  0  0  0  0  0  0  0  0
  141.1660  159.8180  133.1350 O   0  0  0  0  0  0  0  0  0  0  0  0
  146.1970  158.3810  133.4430 C   0  0  0  0  0  0  0  0  0  0  0  0
  146.2710  156.9910  133.3000 C   0  0  0  0  0  0  0  0  0  0  0  0
  149.4579  154.1130  133.5430 H   0  0  0  0  0  0  0  0  0  0  0  0
  148.8176  153.4213  132.0139 H   0  0  0  0  0  0  0  0  0  0  0  0
  149.5804  155.0476  132.0139 H   0  0  0  0  0  0  0  0  0  0  0  0
  146.2428  153.9237  134.0362 H   0  0  0  0  0  0  0  0  0  0  0  0
  145.6142  154.5763  132.4852 H   0  0  0  0  0  0  0  0  0  0  0  0
  146.6784  153.1292  132.4852 H   0  0  0  0  0  0  0  0  0  0  0  0
  149.6467  156.7992  132.6493 H   0  0  0  0  0  0  0  0  0  0  0  0
  149.4327  159.2891  132.8799 H   0  0  0  0  0  0  0  0  0  0  0  0
  147.5449  161.3790  133.3618 H   0  0  0  0  0  0  0  0  0  0  0  0
  142.7230  160.8300  134.0650 H   0  0  0  0  0  0  0  0  0  0  0  0
  141.6689  156.6758  132.1379 H   0  0  0  0  0  0  0  0  0  0  0  0
  141.5372  157.2132  133.8577 H   0  0  0  0  0  0  0  0  0  0  0  0
  140.9942  158.8523  131.3393 H   0  0  0  0  0  0  0  0  0  0  0  0
  139.8260  158.3640  132.6217 H   0  0  0  0  0  0  0  0  0  0  0  0
  142.1540  159.8520  133.2060 H   0  0  0  0  0  0  0  0  0  0  0  0
  145.3710  156.3681  133.4095 H   0  0  0  0  0  0  0  0  0  0  0  0
  1  2  1  0
  2  3  1  0
  2  4  1  0
  4  5  2  0
  5  6  1  0
  6  7  2  0
  7  8  1  0
  8  9  2  0
  9 10  1  0
 10 11  1  0
 10 12  2  0
  9 13  1  0
 13 14  1  0
 14 15  2  0
 14 16  1  0
 16 17  1  0
 17 18  1  0
 18 19  1  0
 13 20  1  0
 20 21  2  0
 21  4  1  0
 20  7  1  0
  1 22  1  0
  1 23  1  0
  1 24  1  0
  3 25  1  0
  3 26  1  0
  3 27  1  0
  5 28  1  0
  6 29  1  0
  8 30  1  0
 11 31  1  0
 17 32  1  0
 17 33  1  0
 18 34  1  0
 18 35  1  0
 19 36  1  0
 21 37  1  0
M  CHG  1  11  -1
M  END
>  <UniqueID>  (48) 
48

>  <SMILES>  (48) 
CN(C)c1ccc2cc(C([NH-])=O)n(C(=O)OCCO)c2c1

>  <Energy>  (48) 
73.69226583118925

>  <Genealogy>  (48) 
CN(C)c1ccc2cc(C([NH-])=O)n(C(=O)OCCO)c2c1 (protonated)
CN(C)c1ccc2cc(C([NH-])=O)n(C(=O)OCCO)c2c1 (3D coordinates assigned)
CN(C)c1ccc2cc(C([NH-])=O)n(C(=O)OCCO)c2c1 (optimized conformer: 73.69226583118925 kcal/mol)

>  <smiles>  (48) 
CN(C)c1ccc2cc(C(N)=O)n(C(=O)OCCO)c2c1

>  <score_type>  (48) 
oracle

>  <origin>  (48) 
adg

>  <m_score__min__energy>  (48) 
-5.2999999999999998

>  <m_primary>  (48) 
energy

$$$$
48:0
     RDKit          3D

 29 30  0  0  0  0  0  0  0  0999 V2000
  141.2540  160.4470  134.0690 N   0  0  0  0  0  0  0  0  0  0  0  0
  142.2400  159.7130  134.7900 C   0  0  0  0  0  0  0  0  0  0  0  0
  142.0010  159.3560  135.9740 O   0  0  0  0  0  0  0  0  0  0  0  0
  143.5570  159.4170  134.1890 C   0  0  0  0  0  0  0  0  0  0  0  0
  144.0170  158.1230  133.9530 C   0  0  0  0  0  0  0  0  0  0  0  0
  145.3020  158.2720  133.4850 C   0  0  0  0  0  0  0  0  0  0  0  0
  146.2260  157.3090  133.0880 C   0  0  0  0  0  0  0  0  0  0  0  0
  147.4750  157.7500  132.6210 C   0  0  0  0  0  0  0  0  0  0  0  0
  147.7700  159.1340  132.5430 C   0  0  0  0  0  0  0  0  0  0  0  0
  149.1180  159.5940  132.0640 C   0  0  0  0  0  0  0  0  0  0  0  0
  148.9640  160.4570  130.8490 C   0  0  0  0  0  0  0  0  0  0  0  0
  148.1070  160.1580  129.9750 O   0  0  0  0  0  0  0  0  0  0  0  0
  149.7540  161.6400  130.7000 N   0  0  0  0  0  0  0  0  0  0  0  0
  149.6070  162.4330  129.6110 O   0  0  0  0  0  0  0  0  0  0  0  0
  146.8100  160.0820  132.9640 C   0  0  0  0  0  0  0  0  0  0  0  0
  145.5800  159.6140  133.4420 C   0  0  0  0  0  0  0  0  0  0  0  0
  144.5170  160.3310  133.8710 N   0  0  0  0  0  0  0  0  0  0  0  0
  144.4030  161.7640  133.8820 C   0  0  0  0  0  0  0  0  0  0  0  0
  143.4070  162.3280  133.3590 O   0  0  0  0  0  0  0  0  0  0  0  0
  145.3780  162.5390  134.4980 O   0  0  0  0  0  0  0  0  0  0  0  0
  141.4920  161.3480  133.5990 H   0  0  0  0  0  0  0  0  0  0  0  0
  143.4689  157.1820  134.1080 H   0  0  0  0  0  0  0  0  0  0  0  0
  145.9854  156.2368  133.1385 H   0  0  0  0  0  0  0  0  0  0  0  0
  148.2319  157.0138  132.3127 H   0  0  0  0  0  0  0  0  0  0  0  0
  149.6100  160.1713  132.8607 H   0  0  0  0  0  0  0  0  0  0  0  0
  149.7286  158.7157  131.8075 H   0  0  0  0  0  0  0  0  0  0  0  0
  150.4630  161.8920  131.4230 H   0  0  0  0  0  0  0  0  0  0  0  0
  148.8600  162.0290  129.1010 H   0  0  0  0  0  0  0  0  0  0  0  0
  147.0237  161.1600  132.9173 H   0  0  0  0  0  0  0  0  0  0  0  0
  1  2  1  0
  2  3  2  0
  2  4  1  0
  4  5  2  0
  5  6  1  0
  6  7  2  0
  7  8  1  0
  8  9  2  0
  9 10  1  0
 10 11  1  0
 11 12  2  0
 11 13  1  0
 13 14  1  0
  9 15  1  0
 15 16  2  0
 16 17  1  0
 17 18  1  0
 18 19  2  0
 18 20  1  0
 17  4  1  0
 16  6  1  0
  1 21  1  0
  5 22  1  0
  7 23  1  0
  8 24  1  0
 10 25  1  0
 10 26  1  0
 13 27  1  0
 14 28  1  0
 15 29  1  0
M  CHG  2   1  -1  20  -1
M  END
>  <UniqueID>  (49) 
49

>  <SMILES>  (49) 
[NH-]C(=O)c1cc2ccc(CC(=O)NO)cc2n1C(=O)[O-]

>  <Energy>  (49) 
65.36555391343599

>  <Genealogy>  (49) 
[NH-]C(=O)c1cc2ccc(CC(=O)NO)cc2n1C(=O)[O-] (protonated)
[NH-]C(=O)c1cc2ccc(CC(=O)NO)cc2n1C(=O)[O-] (3D coordinates assigned)
[NH-]C(=O)c1cc2ccc(CC(=O)NO)cc2n1C(=O)[O-] (optimized conformer: 65.36555391343599 kcal/mol)

>  <smiles>  (49) 
NC(=O)c1cc2ccc(CC(=O)NO)cc2n1C(=O)O

>  <score_type>  (49) 
oracle

>  <origin>  (49) 
adg

>  <m_score__min__energy>  (49) 
-6.8899999999999997

>  <m_primary>  (49) 
energy

$$$$
49:0
     RDKit          3D

 31 33  0  0  0  0  0  0  0  0999 V2000
  143.0140  160.7530  133.3600 N   0  0  0  0  0  0  0  0  0  0  0  0
  144.3840  160.9090  133.7210 C   0  0  0  0  0  0  0  0  0  0  0  0
  144.7430  161.9390  134.3500 O   0  0  0  0  0  0  0  0  0  0  0  0
  145.3750  159.8550  133.4180 C   0  0  0  0  0  0  0  0  0  0  0  0
  146.7190  160.1210  133.1630 C   0  0  0  0  0  0  0  0  0  0  0  0
  147.3130  158.8880  133.0200 C   0  0  0  0  0  0  0  0  0  0  0  0
  148.6360  158.5610  132.7440 C   0  0  0  0  0  0  0  0  0  0  0  0
  148.9690  157.2030  132.6200 C   0  0  0  0  0  0  0  0  0  0  0  0
  147.9780  156.1950  132.7630 C   0  0  0  0  0  0  0  0  0  0  0  0
  148.3380  154.7620  132.6180 C   0  0  0  0  0  0  0  0  0  0  0  0
  149.6250  154.3980  132.3700 N   0  0  0  0  0  0  0  0  0  0  0  0
  149.9780  153.0940  132.2330 C   0  0  0  0  0  0  0  0  0  0  0  0
  149.0080  152.0870  132.3460 C   0  0  0  0  0  0  0  0  0  0  0  0
  149.3630  150.6590  132.2010 C   0  0  0  0  0  0  0  0  0  0  0  0
  150.4830  150.3220  131.7340 O   0  0  0  0  0  0  0  0  0  0  0  0
  148.4630  149.6700  132.5790 O   0  0  0  0  0  0  0  0  0  0  0  0
  147.6900  152.4810  132.6020 C   0  0  0  0  0  0  0  0  0  0  0  0
  147.3840  153.7980  132.7300 N   0  0  0  0  0  0  0  0  0  0  0  0
  146.6420  156.5720  133.0430 C   0  0  0  0  0  0  0  0  0  0  0  0
  146.3450  157.9330  133.1810 C   0  0  0  0  0  0  0  0  0  0  0  0
  145.1470  158.5100  133.4240 N   0  0  0  0  0  0  0  0  0  0  0  0
  143.8890  157.8300  133.5640 C   0  0  0  0  0  0  0  0  0  0  0  0
  143.0230  157.8990  132.6510 O   0  0  0  0  0  0  0  0  0  0  0  0
  143.6240  157.0720  134.6970 O   0  0  0  0  0  0  0  0  0  0  0  0
  142.7270  160.0700  132.6240 H   0  0  0  0  0  0  0  0  0  0  0  0
  147.2021  161.1066  133.0913 H   0  0  0  0  0  0  0  0  0  0  0  0
  149.3997  159.3439  132.6262 H   0  0  0  0  0  0  0  0  0  0  0  0
  150.0098  156.9158  132.4096 H   0  0  0  0  0  0  0  0  0  0  0  0
  151.0262  152.8269  132.0331 H   0  0  0  0  0  0  0  0  0  0  0  0
  146.8997  151.7221  132.6998 H   0  0  0  0  0  0  0  0  0  0  0  0
  145.8544  155.8116  133.1498 H   0  0  0  0  0  0  0  0  0  0  0  0
  1  2  1  0
  2  3  2  0
  2  4  1  0
  4  5  2  0
  5  6  1  0
  6  7  2  0
  7  8  1  0
  8  9  2  0
  9 10  1  0
 10 11  2  0
 11 12  1  0
 12 13  2  0
 13 14  1  0
 14 15  2  0
 14 16  1  0
 13 17  1  0
 17 18  2  0
  9 19  1  0
 19 20  2  0
 20 21  1  0
 21 22  1  0
 22 23  2  0
 22 24  1  0
 21  4  1  0
 20  6  1  0
 18 10  1  0
  1 25  1  0
  5 26  1  0
  7 27  1  0
  8 28  1  0
 12 29  1  0
 17 30  1  0
 19 31  1  0
M  CHG  3   1  -1  16  -1  24  -1
M  END
>  <UniqueID>  (50) 
50

>  <SMILES>  (50) 
[NH-]C(=O)c1cc2ccc(-c3ncc(C(=O)[O-])cn3)cc2n1C(=O)[O-]

>  <Energy>  (50) 
77.14553820855639

>  <Genealogy>  (50) 
[NH-]C(=O)c1cc2ccc(-c3ncc(C(=O)[O-])cn3)cc2n1C(=O)[O-] (protonated)
[NH-]C(=O)c1cc2ccc(-c3ncc(C(=O)[O-])cn3)cc2n1C(=O)[O-] (3D coordinates assigned)
[NH-]C(=O)c1cc2ccc(-c3ncc(C(=O)[O-])cn3)cc2n1C(=O)[O-] (optimized conformer: 77.14553820855639 kcal/mol)

>  <smiles>  (50) 
NC(=O)c1cc2ccc(-c3ncc(C(=O)O)cn3)cc2n1C(=O)O

>  <score_type>  (50) 
oracle

>  <origin>  (50) 
adg

>  <m_score__min__energy>  (50) 
-7.1600000000000001

>  <m_primary>  (50) 
energy

$$$$
50:0
     RDKit          3D

 37 38  0  0  0  0  0  0  0  0999 V2000
  150.1790  150.6780  131.0000 C   0  0  0  0  0  0  0  0  0  0  0  0
  148.7770  151.1150  132.0000 S   0  0  0  0  0  0  0  0  0  0  0  0
  148.1860  149.7870  132.8410 O   0  0  0  0  0  0  0  0  0  0  0  0
  149.1530  152.4270  133.1020 C   0  0  0  0  0  0  0  0  0  0  0  0
  149.2350  152.2040  134.3000 O   0  0  0  0  0  0  0  0  0  0  0  0
  149.3600  153.8170  132.5800 C   0  0  0  0  0  0  0  0  0  0  0  0
  148.1210  154.6410  132.7980 C   0  0  0  0  0  0  0  0  0  0  0  0
  146.8970  154.0070  133.1250 C   0  0  0  0  0  0  0  0  0  0  0  0
  145.7430  154.7650  133.3820 C   0  0  0  0  0  0  0  0  0  0  0  0
  145.8440  156.1510  133.2980 C   0  0  0  0  0  0  0  0  0  0  0  0
  144.8990  157.1210  133.5440 C   0  0  0  0  0  0  0  0  0  0  0  0
  145.5540  158.3320  133.3410 C   0  0  0  0  0  0  0  0  0  0  0  0
  144.8960  159.6480  133.4760 C   0  0  0  0  0  0  0  0  0  0  0  0
  145.6200  160.8640  133.2820 N   0  0  0  0  0  0  0  0  0  0  0  0
  143.6610  159.6990  133.7200 O   0  0  0  0  0  0  0  0  0  0  0  0
  146.8530  158.1230  132.9880 N   0  0  0  0  0  0  0  0  0  0  0  0
  147.8740  159.1220  132.8170 C   0  0  0  0  0  0  0  0  0  0  0  0
  148.3400  159.7170  133.8250 O   0  0  0  0  0  0  0  0  0  0  0  0
  148.3540  159.5100  131.4530 C   0  0  0  0  0  0  0  0  0  0  0  0
  148.0970  160.8680  131.2340 O   0  0  0  0  0  0  0  0  0  0  0  0
  147.0170  156.7810  132.9700 C   0  0  0  0  0  0  0  0  0  0  0  0
  148.1870  156.0500  132.7390 C   0  0  0  0  0  0  0  0  0  0  0  0
  151.0256  150.4141  131.6508 H   0  0  0  0  0  0  0  0  0  0  0  0
  149.9224  149.8172  130.3650 H   0  0  0  0  0  0  0  0  0  0  0  0
  150.4570  151.5321  130.3650 H   0  0  0  0  0  0  0  0  0  0  0  0
  148.1130  150.1000  133.7780 H   0  0  0  0  0  0  0  0  0  0  0  0
  150.2043  154.2825  133.1096 H   0  0  0  0  0  0  0  0  0  0  0  0
  149.5750  153.7685  131.5023 H   0  0  0  0  0  0  0  0  0  0  0  0
  146.8500  152.9093  133.1782 H   0  0  0  0  0  0  0  0  0  0  0  0
  144.7906  154.2795  133.6412 H   0  0  0  0  0  0  0  0  0  0  0  0
  143.8498  156.9710  133.8383 H   0  0  0  0  0  0  0  0  0  0  0  0
  146.5890  160.8610  132.8930 H   0  0  0  0  0  0  0  0  0  0  0  0
  145.1490  161.7830  133.4340 H   0  0  0  0  0  0  0  0  0  0  0  0
  149.4359  159.3256  131.3794 H   0  0  0  0  0  0  0  0  0  0  0  0
  147.8263  158.9114  130.6959 H   0  0  0  0  0  0  0  0  0  0  0  0
  147.8040  161.2360  132.1070 H   0  0  0  0  0  0  0  0  0  0  0  0
  149.1356  156.5607  132.5167 H   0  0  0  0  0  0  0  0  0  0  0  0
  1  2  1  0
  2  3  1  1
  2  4  1  0
  4  5  2  0
  4  6  1  0
  6  7  1  0
  7  8  2  0
  8  9  1  0
  9 10  2  0
 10 11  1  0
 11 12  2  0
 12 13  1  0
 13 14  1  0
 13 15  2  0
 12 16  1  0
 16 17  1  0
 17 18  2  0
 17 19  1  0
 19 20  1  0
 16 21  1  0
 21 22  2  0
 22  7  1  0
 21 10  1  0
  1 23  1  0
  1 24  1  0
  1 25  1  0
  3 26  1  0
  6 27  1  0
  6 28  1  0
  8 29  1  0
  9 30  1  0
 11 31  1  0
 14 32  1  0
 14 33  1  0
 19 34  1  0
 19 35  1  0
 20 36  1  0
 22 37  1  0
M  CHG  1   2   1
M  END
>  <UniqueID>  (51) 
51

>  <SMILES>  (51) 
C[S@@+](O)C(=O)Cc1ccc2cc(C(N)=O)n(C(=O)CO)c2c1

>  <Energy>  (51) 
69.4002926891957

>  <Genealogy>  (51) 
C[S+](O)C(=O)Cc1ccc2cc(C(N)=O)n(C(=O)CO)c2c1 (protonated)
C[S@@+](O)C(=O)Cc1ccc2cc(C(N)=O)n(C(=O)CO)c2c1 (chirality)
C[S@@+](O)C(=O)Cc1ccc2cc(C(N)=O)n(C(=O)CO)c2c1 (3D coordinates assigned)
C[S@@+](O)C(=O)Cc1ccc2cc(C(N)=O)n(C(=O)CO)c2c1 (optimized conformer: 69.4002926891957 kcal/mol)

>  <smiles>  (51) 
C[S+]([O-])C(=O)Cc1ccc2cc(C(N)=O)n(C(=O)CO)c2c1

>  <score_type>  (51) 
oracle

>  <origin>  (51) 
adg

>  <m_score__min__energy>  (51) 
-6.5300000000000002

>  <m_primary>  (51) 
energy

$$$$
51:0
     RDKit          3D

 36 37  0  0  0  0  0  0  0  0999 V2000
  149.6130  151.3670  131.0580 C   0  0  0  0  0  0  0  0  0  0  0  0
  149.1510  152.3110  132.0160 O   0  0  0  0  0  0  0  0  0  0  0  0
  149.1240  152.0400  133.3870 C   0  0  0  0  0  0  0  0  0  0  0  0
  149.6010  150.9630  133.8400 O   0  0  0  0  0  0  0  0  0  0  0  0
  148.4790  153.0170  134.3170 C   0  0  0  0  0  0  0  0  0  0  0  0
  147.4670  153.8910  133.5600 C   0  0  0  0  0  0  0  0  0  0  0  0
  148.0950  154.6390  132.4570 N   0  0  0  0  0  0  0  0  0  0  0  0
  147.9700  156.0660  132.6450 C   0  0  0  0  0  0  0  0  0  0  0  0
  149.1050  156.9050  132.5010 C   0  0  0  0  0  0  0  0  0  0  0  0
  148.9990  158.2920  132.6890 C   0  0  0  0  0  0  0  0  0  0  0  0
  147.7540  158.8120  133.0290 C   0  0  0  0  0  0  0  0  0  0  0  0
  147.3700  160.1150  133.2480 C   0  0  0  0  0  0  0  0  0  0  0  0
  146.0110  160.0530  133.5500 C   0  0  0  0  0  0  0  0  0  0  0  0
  145.2130  161.2320  133.9440 C   0  0  0  0  0  0  0  0  0  0  0  0
  145.8360  162.3920  134.4900 N   0  0  0  0  0  0  0  0  0  0  0  0
  143.9670  161.2350  133.7490 O   0  0  0  0  0  0  0  0  0  0  0  0
  145.5690  158.7630  133.5100 N   0  0  0  0  0  0  0  0  0  0  0  0
  144.2220  158.2920  133.6710 C   0  0  0  0  0  0  0  0  0  0  0  0
  143.8620  157.7510  134.7490 O   0  0  0  0  0  0  0  0  0  0  0  0
  143.3110  158.4020  132.6270 O   0  0  0  0  0  0  0  0  0  0  0  0
  146.6500  158.0150  133.1930 C   0  0  0  0  0  0  0  0  0  0  0  0
  146.7220  156.6320  132.9920 C   0  0  0  0  0  0  0  0  0  0  0  0
  150.0392  150.4961  131.5774 H   0  0  0  0  0  0  0  0  0  0  0  0
  148.7719  151.0426  130.4278 H   0  0  0  0  0  0  0  0  0  0  0  0
  150.3853  151.8322  130.4278 H   0  0  0  0  0  0  0  0  0  0  0  0
  147.9578  152.4677  135.1149 H   0  0  0  0  0  0  0  0  0  0  0  0
  149.2564  153.6646  134.7487 H   0  0  0  0  0  0  0  0  0  0  0  0
  146.6794  153.2440  133.1463 H   0  0  0  0  0  0  0  0  0  0  0  0
  147.0522  154.6210  134.2707 H   0  0  0  0  0  0  0  0  0  0  0  0
  147.6770  154.3460  131.5430 H   0  0  0  0  0  0  0  0  0  0  0  0
  149.1120  154.3920  132.4230 H   0  0  0  0  0  0  0  0  0  0  0  0
  150.0782  156.4640  132.2393 H   0  0  0  0  0  0  0  0  0  0  0  0
  149.8739  158.9482  132.5710 H   0  0  0  0  0  0  0  0  0  0  0  0
  148.0014  161.0143  133.1958 H   0  0  0  0  0  0  0  0  0  0  0  0
  146.8740  162.4450  134.5940 H   0  0  0  0  0  0  0  0  0  0  0  0
  145.8283  156.0001  133.1015 H   0  0  0  0  0  0  0  0  0  0  0  0
  1  2  1  0
  2  3  1  0
  3  4  2  0
  3  5  1  0
  5  6  1  0
  6  7  1  0
  7  8  1  0
  8  9  2  0
  9 10  1  0
 10 11  2  0
 11 12  1  0
 12 13  2  0
 13 14  1  0
 14 15  1  0
 14 16  2  0
 13 17  1  0
 17 18  1  0
 18 19  2  0
 18 20  1  0
 17 21  1  0
 21 22  2  0
 22  8  1  0
 21 11  1  0
  1 23  1  0
  1 24  1  0
  1 25  1  0
  5 26  1  0
  5 27  1  0
  6 28  1  0
  6 29  1  0
  7 30  1  0
  7 31  1  0
  9 32  1  0
 10 33  1  0
 12 34  1  0
 15 35  1  0
 22 36  1  0
M  CHG  3   7   1  15  -1  20  -1
M  END
>  <UniqueID>  (52) 
52

>  <SMILES>  (52) 
COC(=O)CC[NH2+]c1ccc2cc(C([NH-])=O)n(C(=O)[O-])c2c1

>  <Energy>  (52) 
71.90514149884703

>  <Genealogy>  (52) 
COC(=O)CC[NH2+]c1ccc2cc(C([NH-])=O)n(C(=O)[O-])c2c1 (protonated)
COC(=O)CC[NH2+]c1ccc2cc(C([NH-])=O)n(C(=O)[O-])c2c1 (3D coordinates assigned)
COC(=O)CC[NH2+]c1ccc2cc(C([NH-])=O)n(C(=O)[O-])c2c1 (optimized conformer: 71.90514149884703 kcal/mol)

>  <smiles>  (52) 
COC(=O)CCNc1ccc2cc(C(N)=O)n(C(=O)O)c2c1

>  <score_type>  (52) 
oracle

>  <origin>  (52) 
adg

>  <m_score__min__energy>  (52) 
-5.9800000000000004

>  <m_primary>  (52) 
energy

$$$$
52:0
     RDKit          3D

 46 47  0  0  0  0  0  0  0  0999 V2000
  149.1350  154.8730  132.6440 C   0  0  0  0  0  0  0  0  0  0  0  0
  147.7430  155.2000  132.9730 N   0  0  0  0  0  0  0  0  0  0  0  0
  146.7710  154.1100  133.1180 C   0  0  0  0  0  0  0  0  0  0  0  0
  147.3370  156.5810  133.1580 C   0  0  0  0  0  0  0  0  0  0  0  0
  148.3090  157.6110  133.2880 C   0  0  0  0  0  0  0  0  0  0  0  0
  147.9280  158.9500  133.4720 C   0  0  0  0  0  0  0  0  0  0  0  0
  146.5700  159.2410  133.5140 C   0  0  0  0  0  0  0  0  0  0  0  0
  145.9310  160.4440  133.7030 C   0  0  0  0  0  0  0  0  0  0  0  0
  144.5710  160.1500  133.6660 C   0  0  0  0  0  0  0  0  0  0  0  0
  143.5150  161.1810  133.7390 C   0  0  0  0  0  0  0  0  0  0  0  0
  142.1360  160.8210  133.7640 N   0  0  0  0  0  0  0  0  0  0  0  0
  143.8330  162.4010  133.7290 O   0  0  0  0  0  0  0  0  0  0  0  0
  144.3760  158.8140  133.4710 N   0  0  0  0  0  0  0  0  0  0  0  0
  143.1300  158.0990  133.4590 C   0  0  0  0  0  0  0  0  0  0  0  0
  142.7710  157.4800  132.4190 O   0  0  0  0  0  0  0  0  0  0  0  0
  142.3110  158.1050  134.5920 O   0  0  0  0  0  0  0  0  0  0  0  0
  140.9680  157.6340  134.5670 C   0  0  0  0  0  0  0  0  0  0  0  0
  140.0850  158.7140  134.2890 O   0  0  0  0  0  0  0  0  0  0  0  0
  139.1800  158.7030  133.2200 C   0  0  0  0  0  0  0  0  0  0  0  0
  138.0540  158.1460  133.3470 O   0  0  0  0  0  0  0  0  0  0  0  0
  139.5540  159.3590  131.9090 C   0  0  0  0  0  0  0  0  0  0  0  0
  139.1200  160.8370  131.9110 C   0  0  0  0  0  0  0  0  0  0  0  0
  138.8580  158.6210  130.7570 C   0  0  0  0  0  0  0  0  0  0  0  0
  140.9440  159.2730  131.7010 O   0  0  0  0  0  0  0  0  0  0  0  0
  145.6110  158.2730  133.3750 C   0  0  0  0  0  0  0  0  0  0  0  0
  145.9620  156.9270  133.2120 C   0  0  0  0  0  0  0  0  0  0  0  0
  149.7092  154.7381  133.5725 H   0  0  0  0  0  0  0  0  0  0  0  0
  149.1643  153.9435  132.0564 H   0  0  0  0  0  0  0  0  0  0  0  0
  149.5751  155.6922  132.0564 H   0  0  0  0  0  0  0  0  0  0  0  0
  146.5963  153.9141  134.1862 H   0  0  0  0  0  0  0  0  0  0  0  0
  145.8237  154.3972  132.6382 H   0  0  0  0  0  0  0  0  0  0  0  0
  147.1644  153.2017  132.6382 H   0  0  0  0  0  0  0  0  0  0  0  0
  149.3777  157.3543  133.2436 H   0  0  0  0  0  0  0  0  0  0  0  0
  148.6815  159.7441  133.5796 H   0  0  0  0  0  0  0  0  0  0  0  0
  146.3961  161.4297  133.8519 H   0  0  0  0  0  0  0  0  0  0  0  0
  141.8350  159.8360  133.5910 H   0  0  0  0  0  0  0  0  0  0  0  0
  140.8643  156.8668  133.7856 H   0  0  0  0  0  0  0  0  0  0  0  0
  140.7161  157.2011  135.5463 H   0  0  0  0  0  0  0  0  0  0  0  0
  139.0171  161.1875  132.9486 H   0  0  0  0  0  0  0  0  0  0  0  0
  139.8783  161.4425  131.3929 H   0  0  0  0  0  0  0  0  0  0  0  0
  138.1547  160.9364  131.3929 H   0  0  0  0  0  0  0  0  0  0  0  0
  138.1577  157.8785  131.1672 H   0  0  0  0  0  0  0  0  0  0  0  0
  138.3054  159.3441  130.1391 H   0  0  0  0  0  0  0  0  0  0  0  0
  139.6122  158.1116  130.1391 H   0  0  0  0  0  0  0  0  0  0  0  0
  141.3780  159.1170  132.5820 H   0  0  0  0  0  0  0  0  0  0  0  0
  145.1858  156.1522  133.1274 H   0  0  0  0  0  0  0  0  0  0  0  0
  1  2  1  0
  2  3  1  0
  2  4  1  0
  4  5  2  0
  5  6  1  0
  6  7  2  0
  7  8  1  0
  8  9  2  0
  9 10  1  0
 10 11  1  0
 10 12  2  0
  9 13  1  0
 13 14  1  0
 14 15  2  0
 14 16  1  0
 16 17  1  0
 17 18  1  0
 18 19  1  0
 19 20  2  0
 19 21  1  0
 21 22  1  0
 21 23  1  0
 21 24  1  0
 13 25  1  0
 25 26  2  0
 26  4  1  0
 25  7  1  0
  1 27  1  0
  1 28  1  0
  1 29  1  0
  3 30  1  0
  3 31  1  0
  3 32  1  0
  5 33  1  0
  6 34  1  0
  8 35  1  0
 11 36  1  0
 17 37  1  0
 17 38  1  0
 22 39  1  0
 22 40  1  0
 22 41  1  0
 23 42  1  0
 23 43  1  0
 23 44  1  0
 24 45  1  0
 26 46  1  0
M  CHG  1  11  -1
M  END
>  <UniqueID>  (53) 
53

>  <SMILES>  (53) 
CN(C)c1ccc2cc(C([NH-])=O)n(C(=O)OCOC(=O)C(C)(C)O)c2c1

>  <Energy>  (53) 
78.62514742384143

>  <Genealogy>  (53) 
CN(C)c1ccc2cc(C([NH-])=O)n(C(=O)OCOC(=O)C(C)(C)O)c2c1 (protonated)
CN(C)c1ccc2cc(C([NH-])=O)n(C(=O)OCOC(=O)C(C)(C)O)c2c1 (3D coordinates assigned)
CN(C)c1ccc2cc(C([NH-])=O)n(C(=O)OCOC(=O)C(C)(C)O)c2c1 (optimized conformer: 78.62514742384143 kcal/mol)

>  <smiles>  (53) 
CN(C)c1ccc2cc(C(N)=O)n(C(=O)OCOC(=O)C(C)(C)O)c2c1

>  <score_type>  (53) 
oracle

>  <origin>  (53) 
adg

>  <m_score__min__energy>  (53) 
-6.1500000000000004

>  <m_primary>  (53) 
energy

$$$$
53:0
     RDKit          3D

 34 35  0  0  0  0  0  0  0  0999 V2000
  141.5050  155.9800  133.3770 N   0  0  0  0  0  0  0  0  0  0  0  0
  141.7120  157.1260  134.2000 C   0  0  0  0  0  0  0  0  0  0  0  0
  140.8410  157.4380  135.0530 O   0  0  0  0  0  0  0  0  0  0  0  0
  142.9610  157.9060  134.0730 C   0  0  0  0  0  0  0  0  0  0  0  0
  143.0380  159.2760  134.3110 C   0  0  0  0  0  0  0  0  0  0  0  0
  144.3330  159.6280  134.0020 C   0  0  0  0  0  0  0  0  0  0  0  0
  144.9660  160.8650  134.0750 C   0  0  0  0  0  0  0  0  0  0  0  0
  146.3250  160.9320  133.7280 C   0  0  0  0  0  0  0  0  0  0  0  0
  147.0220  159.7680  133.3160 C   0  0  0  0  0  0  0  0  0  0  0  0
  148.4880  159.8420  132.9930 C   0  0  0  0  0  0  0  0  0  0  0  0
  148.8580  158.7540  132.0320 C   0  0  0  0  0  0  0  0  0  0  0  0
  149.1970  157.4520  132.5110 N   0  0  0  0  0  0  0  0  0  0  0  0
  148.8330  158.9760  130.7930 O   0  0  0  0  0  0  0  0  0  0  0  0
  146.3490  158.5280  133.2650 C   0  0  0  0  0  0  0  0  0  0  0  0
  144.9910  158.4950  133.6000 C   0  0  0  0  0  0  0  0  0  0  0  0
  144.1630  157.4270  133.6400 N   0  0  0  0  0  0  0  0  0  0  0  0
  144.5160  156.0620  133.3630 C   0  0  0  0  0  0  0  0  0  0  0  0
  144.1700  155.5330  132.2730 O   0  0  0  0  0  0  0  0  0  0  0  0
  145.2640  155.3350  134.2960 O   0  0  0  0  0  0  0  0  0  0  0  0
  146.4070  154.5570  133.9490 C   0  0  0  0  0  0  0  0  0  0  0  0
  147.6400  155.4010  133.9780 C   0  0  0  0  0  0  0  0  0  0  0  0
  148.5840  155.1680  133.1770 O   0  0  0  0  0  0  0  0  0  0  0  0
  147.7620  156.4280  134.9060 O   0  0  0  0  0  0  0  0  0  0  0  0
  142.0490  155.8460  132.4960 H   0  0  0  0  0  0  0  0  0  0  0  0
  142.2349  159.9366  134.6697 H   0  0  0  0  0  0  0  0  0  0  0  0
  144.4182  161.7636  134.3950 H   0  0  0  0  0  0  0  0  0  0  0  0
  146.8533  161.8956  133.7762 H   0  0  0  0  0  0  0  0  0  0  0  0
  148.7121  160.8192  132.5404 H   0  0  0  0  0  0  0  0  0  0  0  0
  149.0679  159.7173  133.9194 H   0  0  0  0  0  0  0  0  0  0  0  0
  149.4380  156.6900  131.8400 H   0  0  0  0  0  0  0  0  0  0  0  0
  149.2030  157.2460  133.5350 H   0  0  0  0  0  0  0  0  0  0  0  0
  146.8791  157.6107  132.9692 H   0  0  0  0  0  0  0  0  0  0  0  0
  146.5157  153.7318  134.6682 H   0  0  0  0  0  0  0  0  0  0  0  0
  146.2718  154.1576  132.9330 H   0  0  0  0  0  0  0  0  0  0  0  0
  1  2  1  0
  2  3  2  0
  2  4  1  0
  4  5  2  0
  5  6  1  0
  6  7  2  0
  7  8  1  0
  8  9  2  0
  9 10  1  0
 10 11  1  0
 11 12  1  0
 11 13  2  0
  9 14  1  0
 14 15  2  0
 15 16  1  0
 16 17  1  0
 17 18  2  0
 17 19  1  0
 19 20  1  0
 20 21  1  0
 21 22  2  0
 21 23  1  0
 16  4  1  0
 15  6  1  0
  1 24  1  0
  5 25  1  0
  7 26  1  0
  8 27  1  0
 10 28  1  0
 10 29  1  0
 12 30  1  0
 12 31  1  0
 14 32  1  0
 20 33  1  0
 20 34  1  0
M  CHG  2   1  -1  23  -1
M  END
>  <UniqueID>  (54) 
54

>  <SMILES>  (54) 
[NH-]C(=O)c1cc2ccc(CC(N)=O)cc2n1C(=O)OCC(=O)[O-]

>  <Energy>  (54) 
67.39343508154887

>  <Genealogy>  (54) 
[NH-]C(=O)c1cc2ccc(CC(N)=O)cc2n1C(=O)OCC(=O)[O-] (protonated)
[NH-]C(=O)c1cc2ccc(CC(N)=O)cc2n1C(=O)OCC(=O)[O-] (3D coordinates assigned)
[NH-]C(=O)c1cc2ccc(CC(N)=O)cc2n1C(=O)OCC(=O)[O-] (optimized conformer: 67.39343508154887 kcal/mol)

>  <smiles>  (54) 
NC(=O)Cc1ccc2cc(C(N)=O)n(C(=O)OCC(=O)O)c2c1

>  <score_type>  (54) 
oracle

>  <origin>  (54) 
adg

>  <m_score__min__energy>  (54) 
-6.6500000000000004

>  <m_primary>  (54) 
energy

$$$$
54:0
     RDKit          3D

 49 50  0  0  0  0  0  0  0  0999 V2000
  139.2890  158.9060  131.5330 C   0  0  0  0  0  0  0  0  0  0  0  0
  138.8240  158.7190  132.8650 O   0  0  0  0  0  0  0  0  0  0  0  0
  139.6450  158.2450  133.8900 C   0  0  0  0  0  0  0  0  0  0  0  0
  139.2190  158.2120  135.0780 O   0  0  0  0  0  0  0  0  0  0  0  0
  140.9880  157.8310  133.5940 N   0  0  0  0  0  0  0  0  0  0  0  0
  142.1120  158.6010  133.5840 C   0  0  0  0  0  0  0  0  0  0  0  0
  142.1530  160.0760  133.6590 C   0  0  0  0  0  0  0  0  0  0  0  0
  141.0170  160.8610  133.3110 N   0  0  0  0  0  0  0  0  0  0  0  0
  143.2250  160.6540  133.9820 O   0  0  0  0  0  0  0  0  0  0  0  0
  143.2440  157.8140  133.3910 C   0  0  0  0  0  0  0  0  0  0  0  0
  142.7780  156.5250  133.2760 C   0  0  0  0  0  0  0  0  0  0  0  0
  143.4740  155.3360  133.0820 C   0  0  0  0  0  0  0  0  0  0  0  0
  142.7330  154.1470  133.0090 C   0  0  0  0  0  0  0  0  0  0  0  0
  141.3220  154.1640  133.1430 C   0  0  0  0  0  0  0  0  0  0  0  0
  140.5370  152.8910  132.9900 C   0  0  0  0  0  0  0  0  0  0  0  0
  141.4150  151.6820  133.3270 C   0  0  0  0  0  0  0  0  0  0  0  0
  140.7210  150.4320  133.0230 N   0  0  0  0  0  0  0  0  0  0  0  0
  141.2820  149.4230  132.1700 C   0  0  0  0  0  0  0  0  0  0  0  0
  142.4670  149.5300  131.7470 O   0  0  0  0  0  0  0  0  0  0  0  0
  140.4620  148.2300  131.7650 C   0  0  0  0  0  0  0  0  0  0  0  0
  139.0280  148.6240  131.3870 C   0  0  0  0  0  0  0  0  0  0  0  0
  138.6000  147.9990  130.1170 N   0  0  0  0  0  0  0  0  0  0  0  0
  139.1640  146.6460  129.9760 C   0  0  0  0  0  0  0  0  0  0  0  0
  139.0300  148.8280  128.9820 C   0  0  0  0  0  0  0  0  0  0  0  0
  140.6510  155.3900  133.3470 C   0  0  0  0  0  0  0  0  0  0  0  0
  141.4130  156.5620  133.4000 C   0  0  0  0  0  0  0  0  0  0  0  0
  140.3094  159.3164  131.5551 H   0  0  0  0  0  0  0  0  0  0  0  0
  139.2937  157.9398  131.0072 H   0  0  0  0  0  0  0  0  0  0  0  0
  138.6234  159.6064  131.0072 H   0  0  0  0  0  0  0  0  0  0  0  0
  140.0580  160.4500  133.3110 H   0  0  0  0  0  0  0  0  0  0  0  0
  144.2897  158.1515  133.3411 H   0  0  0  0  0  0  0  0  0  0  0  0
  144.5700  155.3285  132.9889 H   0  0  0  0  0  0  0  0  0  0  0  0
  143.2526  153.1912  132.8460 H   0  0  0  0  0  0  0  0  0  0  0  0
  139.6731  152.9132  133.6706 H   0  0  0  0  0  0  0  0  0  0  0  0
  140.1937  152.8050  131.9485 H   0  0  0  0  0  0  0  0  0  0  0  0
  142.3407  151.7331  132.7350 H   0  0  0  0  0  0  0  0  0  0  0  0
  141.6448  151.7036  134.4025 H   0  0  0  0  0  0  0  0  0  0  0  0
  139.7400  150.3190  133.3650 H   0  0  0  0  0  0  0  0  0  0  0  0
  140.9387  147.7482  130.8986 H   0  0  0  0  0  0  0  0  0  0  0  0
  140.4123  147.5430  132.6227 H   0  0  0  0  0  0  0  0  0  0  0  0
  138.3476  148.3014  132.1889 H   0  0  0  0  0  0  0  0  0  0  0  0
  138.9981  149.7158  131.2562 H   0  0  0  0  0  0  0  0  0  0  0  0
  139.3426  146.2175  130.9732 H   0  0  0  0  0  0  0  0  0  0  0  0
  138.4563  146.0094  129.4247 H   0  0  0  0  0  0  0  0  0  0  0  0
  140.1143  146.7005  129.4247 H   0  0  0  0  0  0  0  0  0  0  0  0
  139.5060  149.7457  129.3578 H   0  0  0  0  0  0  0  0  0  0  0  0
  139.7502  148.2658  128.3694 H   0  0  0  0  0  0  0  0  0  0  0  0
  138.1556  149.0929  128.3694 H   0  0  0  0  0  0  0  0  0  0  0  0
  139.5574  155.4224  133.4613 H   0  0  0  0  0  0  0  0  0  0  0  0
  1  2  1  0
  2  3  1  0
  3  4  2  0
  3  5  1  0
  5  6  1  0
  6  7  1  0
  7  8  1  0
  7  9  2  0
  6 10  2  0
 10 11  1  0
 11 12  2  0
 12 13  1  0
 13 14  2  0
 14 15  1  0
 15 16  1  0
 16 17  1  0
 17 18  1  0
 18 19  2  0
 18 20  1  0
 20 21  1  0
 21 22  1  0
 22 23  1  0
 22 24  1  0
 14 25  1  0
 25 26  2  0
 26  5  1  0
 26 11  1  0
  1 27  1  0
  1 28  1  0
  1 29  1  0
  8 30  1  0
 10 31  1  0
 12 32  1  0
 13 33  1  0
 15 34  1  0
 15 35  1  0
 16 36  1  0
 16 37  1  0
 17 38  1  0
 20 39  1  0
 20 40  1  0
 21 41  1  0
 21 42  1  0
 23 43  1  0
 23 44  1  0
 23 45  1  0
 24 46  1  0
 24 47  1  0
 24 48  1  0
 25 49  1  0
M  CHG  1   8  -1
M  END
>  <UniqueID>  (55) 
55

>  <SMILES>  (55) 
COC(=O)n1c(C([NH-])=O)cc2ccc(CCNC(=O)CCN(C)C)cc21

>  <Energy>  (55) 
78.99252437744138

>  <Genealogy>  (55) 
COC(=O)n1c(C([NH-])=O)cc2ccc(CCNC(=O)CCN(C)C)cc21 (protonated)
COC(=O)n1c(C([NH-])=O)cc2ccc(CCNC(=O)CCN(C)C)cc21 (3D coordinates assigned)
COC(=O)n1c(C([NH-])=O)cc2ccc(CCNC(=O)CCN(C)C)cc21 (optimized conformer: 78.99252437744138 kcal/mol)

>  <smiles>  (55) 
COC(=O)n1c(C(N)=O)cc2ccc(CCNC(=O)CCN(C)C)cc21

>  <score_type>  (55) 
oracle

>  <origin>  (55) 
adg

>  <m_score__min__energy>  (55) 
-7.8099999999999996

>  <m_primary>  (55) 
energy

$$$$
55:0
     RDKit          3D

 34 35  0  0  0  0  0  0  0  0999 V2000
  141.3610  152.1640  137.6620 C   0  0  0  0  0  0  0  0  0  0  0  0
  142.1030  152.6700  136.5170 N   0  0  0  0  0  0  0  0  0  0  0  0
  143.2570  153.5050  136.6520 C   0  0  0  0  0  0  0  0  0  0  0  0
  143.7450  153.7390  137.7910 O   0  0  0  0  0  0  0  0  0  0  0  0
  143.8710  154.1250  135.4360 C   0  0  0  0  0  0  0  0  0  0  0  0
  145.0120  154.9600  135.8080 N   0  0  0  0  0  0  0  0  0  0  0  0
  145.9790  155.4820  134.8740 C   0  0  0  0  0  0  0  0  0  0  0  0
  147.0350  154.6790  134.3630 C   0  0  0  0  0  0  0  0  0  0  0  0
  147.9710  155.2120  133.4610 C   0  0  0  0  0  0  0  0  0  0  0  0
  147.8270  156.5420  133.0800 C   0  0  0  0  0  0  0  0  0  0  0  0
  148.6040  157.3150  132.2480 C   0  0  0  0  0  0  0  0  0  0  0  0
  148.0050  158.5740  132.2470 C   0  0  0  0  0  0  0  0  0  0  0  0
  148.4950  159.7140  131.4420 C   0  0  0  0  0  0  0  0  0  0  0  0
  148.5670  161.0270  131.9940 N   0  0  0  0  0  0  0  0  0  0  0  0
  148.8290  159.5320  130.2410 O   0  0  0  0  0  0  0  0  0  0  0  0
  146.9000  158.5750  133.0450 N   0  0  0  0  0  0  0  0  0  0  0  0
  146.0520  159.6880  133.3690 C   0  0  0  0  0  0  0  0  0  0  0  0
  146.5680  160.7770  133.7370 O   0  0  0  0  0  0  0  0  0  0  0  0
  144.5910  159.5750  133.2720 C   0  0  0  0  0  0  0  0  0  0  0  0
  143.8480  160.4680  133.7580 O   0  0  0  0  0  0  0  0  0  0  0  0
  144.0180  158.4700  132.6540 O   0  0  0  0  0  0  0  0  0  0  0  0
  146.8090  157.3260  133.5510 C   0  0  0  0  0  0  0  0  0  0  0  0
  145.8740  156.8290  134.4640 C   0  0  0  0  0  0  0  0  0  0  0  0
  141.8482  152.4963  138.5906 H   0  0  0  0  0  0  0  0  0  0  0  0
  140.3309  152.5487  137.6305 H   0  0  0  0  0  0  0  0  0  0  0  0
  141.3430  151.0646  137.6305 H   0  0  0  0  0  0  0  0  0  0  0  0
  144.2108  153.3296  134.7564 H   0  0  0  0  0  0  0  0  0  0  0  0
  143.1178  154.7531  134.9379 H   0  0  0  0  0  0  0  0  0  0  0  0
  145.1150  155.2040  136.8200 H   0  0  0  0  0  0  0  0  0  0  0  0
  147.1202  153.6284  134.6775 H   0  0  0  0  0  0  0  0  0  0  0  0
  148.7931  154.5960  133.0678 H   0  0  0  0  0  0  0  0  0  0  0  0
  149.5062  157.0054  131.7001 H   0  0  0  0  0  0  0  0  0  0  0  0
  147.7070  161.6040  132.1200 H   0  0  0  0  0  0  0  0  0  0  0  0
  145.0732  157.4740  134.8548 H   0  0  0  0  0  0  0  0  0  0  0  0
  1  2  1  0
  2  3  1  0
  3  4  2  0
  3  5  1  0
  5  6  1  0
  6  7  1  0
  7  8  2  0
  8  9  1  0
  9 10  2  0
 10 11  1  0
 11 12  2  0
 12 13  1  0
 13 14  1  0
 13 15  2  0
 12 16  1  0
 16 17  1  0
 17 18  2  0
 17 19  1  0
 19 20  2  0
 19 21  1  0
 16 22  1  0
 22 23  2  0
 23  7  1  0
 22 10  1  0
  1 24  1  0
  1 25  1  0
  1 26  1  0
  5 27  1  0
  5 28  1  0
  6 29  1  0
  8 30  1  0
  9 31  1  0
 11 32  1  0
 14 33  1  0
 23 34  1  0
M  CHG  3   2  -1  14  -1  21  -1
M  END
>  <UniqueID>  (56) 
56

>  <SMILES>  (56) 
C[N-]C(=O)CNc1ccc2cc(C([NH-])=O)n(C(=O)C(=O)[O-])c2c1

>  <Energy>  (56) 
69.71083321224948

>  <Genealogy>  (56) 
C[N-]C(=O)CNc1ccc2cc(C([NH-])=O)n(C(=O)C(=O)[O-])c2c1 (protonated)
C[N-]C(=O)CNc1ccc2cc(C([NH-])=O)n(C(=O)C(=O)[O-])c2c1 (3D coordinates assigned)
C[N-]C(=O)CNc1ccc2cc(C([NH-])=O)n(C(=O)C(=O)[O-])c2c1 (optimized conformer: 69.71083321224948 kcal/mol)

>  <smiles>  (56) 
CNC(=O)CNc1ccc2cc(C(N)=O)n(C(=O)C(=O)O)c2c1

>  <score_type>  (56) 
oracle

>  <origin>  (56) 
adg

>  <m_score__min__energy>  (56) 
-6.1799999999999997

>  <m_primary>  (56) 
energy

$$$$
56:0
     RDKit          3D

 40 41  0  0  0  0  0  0  0  0999 V2000
  149.5870  151.3200  133.8950 C   0  0  0  0  0  0  0  0  0  0  0  0
  149.5280  152.1940  132.7100 N   0  0  0  0  0  0  0  0  0  0  0  0
  149.6630  151.3670  131.4940 C   0  0  0  0  0  0  0  0  0  0  0  0
  148.2580  152.9560  132.6930 C   0  0  0  0  0  0  0  0  0  0  0  0
  148.5030  154.4620  132.8820 C   0  0  0  0  0  0  0  0  0  0  0  0
  147.1180  155.4740  132.2380 S   0  0  0  0  0  0  0  0  0  0  0  0
  147.2570  156.7600  133.4840 C   0  0  0  0  0  0  0  0  0  0  0  0
  148.0420  156.5780  134.4550 O   0  0  0  0  0  0  0  0  0  0  0  0
  146.4820  157.9710  133.3980 N   0  0  0  0  0  0  0  0  0  0  0  0
  146.8990  159.2010  132.9850 C   0  0  0  0  0  0  0  0  0  0  0  0
  148.2700  159.5560  132.6020 C   0  0  0  0  0  0  0  0  0  0  0  0
  149.3840  158.9320  133.2490 N   0  0  0  0  0  0  0  0  0  0  0  0
  148.4670  160.3690  131.6580 O   0  0  0  0  0  0  0  0  0  0  0  0
  145.8600  160.1220  133.0260 C   0  0  0  0  0  0  0  0  0  0  0  0
  144.7710  159.4140  133.4810 C   0  0  0  0  0  0  0  0  0  0  0  0
  143.4550  159.8250  133.6670 C   0  0  0  0  0  0  0  0  0  0  0  0
  142.5210  158.8670  134.0930 C   0  0  0  0  0  0  0  0  0  0  0  0
  142.9140  157.5230  134.3310 C   0  0  0  0  0  0  0  0  0  0  0  0
  141.8850  156.4950  134.7280 C   0  0  0  0  0  0  0  0  0  0  0  0
  142.4970  155.3570  135.2240 F   0  0  0  0  0  0  0  0  0  0  0  0
  141.0460  156.9960  135.7100 F   0  0  0  0  0  0  0  0  0  0  0  0
  141.1300  156.1550  133.6210 F   0  0  0  0  0  0  0  0  0  0  0  0
  144.2560  157.1410  134.1060 C   0  0  0  0  0  0  0  0  0  0  0  0
  145.1710  158.1190  133.6980 C   0  0  0  0  0  0  0  0  0  0  0  0
  149.5455  151.9346  134.8063 H   0  0  0  0  0  0  0  0  0  0  0  0
  148.7337  150.6260  133.8816 H   0  0  0  0  0  0  0  0  0  0  0  0
  150.5259  150.7470  133.8816 H   0  0  0  0  0  0  0  0  0  0  0  0
  149.8341  150.3189  131.7805 H   0  0  0  0  0  0  0  0  0  0  0  0
  148.7413  151.4384  130.8978 H   0  0  0  0  0  0  0  0  0  0  0  0
  150.5141  151.7278  130.8978 H   0  0  0  0  0  0  0  0  0  0  0  0
  147.7565  152.7937  131.7275 H   0  0  0  0  0  0  0  0  0  0  0  0
  147.6309  152.6010  133.5241 H   0  0  0  0  0  0  0  0  0  0  0  0
  148.6241  154.6693  133.9555 H   0  0  0  0  0  0  0  0  0  0  0  0
  149.4085  154.7305  132.3181 H   0  0  0  0  0  0  0  0  0  0  0  0
  150.3600  159.1390  132.9400 H   0  0  0  0  0  0  0  0  0  0  0  0
  149.2350  158.2390  134.0120 H   0  0  0  0  0  0  0  0  0  0  0  0
  145.8991  161.1870  132.7537 H   0  0  0  0  0  0  0  0  0  0  0  0
  143.1555  160.8679  133.4860 H   0  0  0  0  0  0  0  0  0  0  0  0
  141.4719  159.1610  134.2443 H   0  0  0  0  0  0  0  0  0  0  0  0
  144.5747  156.0979  134.2484 H   0  0  0  0  0  0  0  0  0  0  0  0
  1  2  1  0
  2  3  1  0
  2  4  1  0
  4  5  1  0
  5  6  1  0
  6  7  1  0
  7  8  2  0
  7  9  1  0
  9 10  1  0
 10 11  1  0
 11 12  1  0
 11 13  2  0
 10 14  2  0
 14 15  1  0
 15 16  2  0
 16 17  1  0
 17 18  2  0
 18 19  1  0
 19 20  1  0
 19 21  1  0
 19 22  1  0
 18 23  1  0
 23 24  2  0
 24  9  1  0
 24 15  1  0
  1 25  1  0
  1 26  1  0
  1 27  1  0
  3 28  1  0
  3 29  1  0
  3 30  1  0
  4 31  1  0
  4 32  1  0
  5 33  1  0
  5 34  1  0
 12 35  1  0
 12 36  1  0
 14 37  1  0
 16 38  1  0
 17 39  1  0
 23 40  1  0
M  END
>  <UniqueID>  (57) 
57

>  <SMILES>  (57) 
CN(C)CCSC(=O)n1c(C(N)=O)cc2ccc(C(F)(F)F)cc21

>  <Energy>  (57) 
77.21663816952815

>  <Genealogy>  (57) 
CN(C)CCSC(=O)n1c(C(N)=O)cc2ccc(C(F)(F)F)cc21 (3D coordinates assigned)
CN(C)CCSC(=O)n1c(C(N)=O)cc2ccc(C(F)(F)F)cc21 (optimized conformer: 77.21663816952815 kcal/mol)

>  <smiles>  (57) 
CN(C)CCSC(=O)n1c(C(N)=O)cc2ccc(C(F)(F)F)cc21

>  <score_type>  (57) 
oracle

>  <origin>  (57) 
adg

>  <m_score__min__energy>  (57) 
-7.3799999999999999

>  <m_primary>  (57) 
energy

$$$$
57:0
     RDKit          3D

 34 35  0  0  0  0  0  0  0  0999 V2000
  148.6930  154.2680  132.2070 N   0  0  0  0  0  0  0  0  0  0  0  0
  148.3180  153.8220  133.5460 C   0  0  0  0  0  0  0  0  0  0  0  0
  147.8460  154.9990  134.4010 C   0  0  0  0  0  0  0  0  0  0  0  0
  148.1720  156.2420  133.7820 O   0  0  0  0  0  0  0  0  0  0  0  0
  147.3790  156.8580  132.8060 C   0  0  0  0  0  0  0  0  0  0  0  0
  147.0180  156.2170  131.7810 O   0  0  0  0  0  0  0  0  0  0  0  0
  146.9580  158.2190  132.9850 N   0  0  0  0  0  0  0  0  0  0  0  0
  147.6730  159.3530  132.7280 C   0  0  0  0  0  0  0  0  0  0  0  0
  149.1000  159.3980  132.3400 C   0  0  0  0  0  0  0  0  0  0  0  0
  149.9480  158.2660  132.5470 N   0  0  0  0  0  0  0  0  0  0  0  0
  149.5760  160.4270  131.7930 O   0  0  0  0  0  0  0  0  0  0  0  0
  146.8970  160.4840  132.9740 C   0  0  0  0  0  0  0  0  0  0  0  0
  145.6770  160.0050  133.3950 C   0  0  0  0  0  0  0  0  0  0  0  0
  144.5230  160.6940  133.7550 C   0  0  0  0  0  0  0  0  0  0  0  0
  143.3940  159.9420  134.1190 C   0  0  0  0  0  0  0  0  0  0  0  0
  143.4380  158.5240  134.1280 C   0  0  0  0  0  0  0  0  0  0  0  0
  142.2000  157.7290  134.4600 C   0  0  0  0  0  0  0  0  0  0  0  0
  142.5390  156.5220  135.0490 F   0  0  0  0  0  0  0  0  0  0  0  0
  141.4950  157.4810  133.2970 F   0  0  0  0  0  0  0  0  0  0  0  0
  141.3920  158.4280  135.3380 F   0  0  0  0  0  0  0  0  0  0  0  0
  144.6240  157.8620  133.7330 C   0  0  0  0  0  0  0  0  0  0  0  0
  145.7390  158.6360  133.3930 C   0  0  0  0  0  0  0  0  0  0  0  0
  147.8410  154.2120  131.6040 H   0  0  0  0  0  0  0  0  0  0  0  0
  148.9540  155.2790  132.2600 H   0  0  0  0  0  0  0  0  0  0  0  0
  147.5044  153.0860  133.4658 H   0  0  0  0  0  0  0  0  0  0  0  0
  149.1989  153.3702  134.0255 H   0  0  0  0  0  0  0  0  0  0  0  0
  146.7553  154.9360  134.5295 H   0  0  0  0  0  0  0  0  0  0  0  0
  148.3518  154.9493  135.3765 H   0  0  0  0  0  0  0  0  0  0  0  0
  150.9430  158.2940  132.2330 H   0  0  0  0  0  0  0  0  0  0  0  0
  149.6070  157.4150  133.0460 H   0  0  0  0  0  0  0  0  0  0  0  0
  147.1958  161.5361  132.8567 H   0  0  0  0  0  0  0  0  0  0  0  0
  144.4958  161.7937  133.7545 H   0  0  0  0  0  0  0  0  0  0  0  0
  142.4646  160.4587  134.4005 H   0  0  0  0  0  0  0  0  0  0  0  0
  144.6687  156.7636  133.6940 H   0  0  0  0  0  0  0  0  0  0  0  0
  1  2  1  0
  2  3  1  0
  3  4  1  0
  4  5  1  0
  5  6  2  0
  5  7  1  0
  7  8  1  0
  8  9  1  0
  9 10  1  0
  9 11  2  0
  8 12  2  0
 12 13  1  0
 13 14  2  0
 14 15  1  0
 15 16  2  0
 16 17  1  0
 17 18  1  0
 17 19  1  0
 17 20  1  0
 16 21  1  0
 21 22  2  0
 22  7  1  0
 22 13  1  0
  1 23  1  0
  1 24  1  0
  2 25  1  0
  2 26  1  0
  3 27  1  0
  3 28  1  0
 10 29  1  0
 10 30  1  0
 12 31  1  0
 14 32  1  0
 15 33  1  0
 21 34  1  0
M  END
>  <UniqueID>  (58) 
58

>  <SMILES>  (58) 
NCCOC(=O)n1c(C(N)=O)cc2ccc(C(F)(F)F)cc21

>  <Energy>  (58) 
69.20592808939037

>  <Genealogy>  (58) 
NCCOC(=O)n1c(C(N)=O)cc2ccc(C(F)(F)F)cc21 (3D coordinates assigned)
NCCOC(=O)n1c(C(N)=O)cc2ccc(C(F)(F)F)cc21 (optimized conformer: 69.20592808939037 kcal/mol)

>  <smiles>  (58) 
NCCOC(=O)n1c(C(N)=O)cc2ccc(C(F)(F)F)cc21

>  <score_type>  (58) 
oracle

>  <origin>  (58) 
adg

>  <m_score__min__energy>  (58) 
-6.3799999999999999

>  <m_primary>  (58) 
energy

$$$$
58:0
     RDKit          3D

 37 38  0  0  0  0  0  0  0  0999 V2000
  139.5010  154.5490  139.8680 C   0  0  0  0  0  0  0  0  0  0  0  0
  140.6710  153.5980  139.5290 C   0  0  0  0  0  0  0  0  0  0  0  0
  141.0600  152.7990  140.7900 C   0  0  0  0  0  0  0  0  0  0  0  0
  141.9210  154.4220  139.0850 C   0  0  0  0  0  0  0  0  0  0  0  0
  141.5990  155.6750  138.2970 C   0  0  0  0  0  0  0  0  0  0  0  0
  141.6740  156.9470  138.9210 C   0  0  0  0  0  0  0  0  0  0  0  0
  141.3670  158.1170  138.2070 C   0  0  0  0  0  0  0  0  0  0  0  0
  141.0070  157.9880  136.8690 C   0  0  0  0  0  0  0  0  0  0  0  0
  140.6430  158.9500  135.9560 C   0  0  0  0  0  0  0  0  0  0  0  0
  140.3900  158.2600  134.7730 C   0  0  0  0  0  0  0  0  0  0  0  0
  140.0470  158.9270  133.4990 C   0  0  0  0  0  0  0  0  0  0  0  0
  141.0400  159.6770  132.8030 N   0  0  0  0  0  0  0  0  0  0  0  0
  138.8980  158.8090  132.9980 O   0  0  0  0  0  0  0  0  0  0  0  0
  140.5830  156.9220  134.9490 N   0  0  0  0  0  0  0  0  0  0  0  0
  140.3540  155.8680  133.9980 C   0  0  0  0  0  0  0  0  0  0  0  0
  141.2510  155.0140  133.7680 O   0  0  0  0  0  0  0  0  0  0  0  0
  139.1340  155.7660  133.3440 O   0  0  0  0  0  0  0  0  0  0  0  0
  140.9630  156.7730  136.2390 C   0  0  0  0  0  0  0  0  0  0  0  0
  141.2490  155.5900  136.9300 C   0  0  0  0  0  0  0  0  0  0  0  0
  140.2790  152.6570  138.4590 N   0  0  0  0  0  0  0  0  0  0  0  0
  141.0290  151.5000  138.0540 C   0  0  0  0  0  0  0  0  0  0  0  0
  142.1200  151.2010  138.6040 O   0  0  0  0  0  0  0  0  0  0  0  0
  140.5440  150.6960  137.0300 O   0  0  0  0  0  0  0  0  0  0  0  0
  139.3999  154.6311  140.9603 H   0  0  0  0  0  0  0  0  0  0  0  0
  139.7016  155.5433  139.4425 H   0  0  0  0  0  0  0  0  0  0  0  0
  138.5686  154.1494  139.4425 H   0  0  0  0  0  0  0  0  0  0  0  0
  140.7814  153.3713  141.6871 H   0  0  0  0  0  0  0  0  0  0  0  0
  140.5305  151.8348  140.7910 H   0  0  0  0  0  0  0  0  0  0  0  0
  142.1455  152.6211  140.7910 H   0  0  0  0  0  0  0  0  0  0  0  0
  142.4766  154.7168  139.9874 H   0  0  0  0  0  0  0  0  0  0  0  0
  142.5030  153.7718  138.4153 H   0  0  0  0  0  0  0  0  0  0  0  0
  141.9761  157.0178  139.9763 H   0  0  0  0  0  0  0  0  0  0  0  0
  141.4098  159.1042  138.6903 H   0  0  0  0  0  0  0  0  0  0  0  0
  140.5677  160.0344  136.1244 H   0  0  0  0  0  0  0  0  0  0  0  0
  141.3730  159.3800  131.8590 H   0  0  0  0  0  0  0  0  0  0  0  0
  141.2025  154.6160  136.4209 H   0  0  0  0  0  0  0  0  0  0  0  0
  139.4160  152.8470  137.9040 H   0  0  0  0  0  0  0  0  0  0  0  0
  1  2  1  0
  2  3  1  0
  2  4  1  0
  4  5  1  0
  5  6  2  0
  6  7  1  0
  7  8  2  0
  8  9  1  0
  9 10  2  0
 10 11  1  0
 11 12  1  0
 11 13  2  0
 10 14  1  0
 14 15  1  0
 15 16  2  0
 15 17  1  0
 14 18  1  0
 18 19  2  0
  2 20  1  0
 20 21  1  0
 21 22  2  0
 21 23  1  0
 19  5  1  0
 18  8  1  0
  1 24  1  0
  1 25  1  0
  1 26  1  0
  3 27  1  0
  3 28  1  0
  3 29  1  0
  4 30  1  0
  4 31  1  0
  6 32  1  0
  7 33  1  0
  9 34  1  0
 12 35  1  0
 19 36  1  0
 20 37  1  0
M  CHG  3  12  -1  17  -1  23  -1
M  END
>  <UniqueID>  (59) 
59

>  <SMILES>  (59) 
CC(C)(Cc1ccc2cc(C([NH-])=O)n(C(=O)[O-])c2c1)NC(=O)[O-]

>  <Energy>  (59) 
74.47748144505111

>  <Genealogy>  (59) 
CC(C)(Cc1ccc2cc(C([NH-])=O)n(C(=O)[O-])c2c1)NC(=O)[O-] (protonated)
CC(C)(Cc1ccc2cc(C([NH-])=O)n(C(=O)[O-])c2c1)NC(=O)[O-] (3D coordinates assigned)
CC(C)(Cc1ccc2cc(C([NH-])=O)n(C(=O)[O-])c2c1)NC(=O)[O-] (optimized conformer: 74.47748144505111 kcal/mol)

>  <smiles>  (59) 
CC(C)(Cc1ccc2cc(C(N)=O)n(C(=O)O)c2c1)NC(=O)O

>  <score_type>  (59) 
oracle

>  <origin>  (59) 
adg

>  <m_score__min__energy>  (59) 
-7.1600000000000001

>  <m_primary>  (59) 
energy

$$$$
59:0
     RDKit          3D

 29 31  0  0  0  0  0  0  0  0999 V2000
  139.8920  158.6260  132.2520 C   0  0  0  0  0  0  0  0  0  0  0  0
  140.0230  158.3690  133.7190 C   0  0  0  0  0  0  0  0  0  0  0  0
  139.0400  157.8540  134.4770 N   0  0  0  0  0  0  0  0  0  0  0  0
  139.5240  157.7300  135.7030 N   0  0  0  0  0  0  0  0  0  0  0  0
  140.7820  158.1460  135.7690 N   0  0  0  0  0  0  0  0  0  0  0  0
  141.1220  158.5680  134.5370 C   0  0  0  0  0  0  0  0  0  0  0  0
  142.4610  159.0960  134.1930 C   0  0  0  0  0  0  0  0  0  0  0  0
  142.6950  160.4910  134.0850 C   0  0  0  0  0  0  0  0  0  0  0  0
  143.9750  160.9830  133.7800 C   0  0  0  0  0  0  0  0  0  0  0  0
  145.0010  160.0620  133.5930 C   0  0  0  0  0  0  0  0  0  0  0  0
  146.3340  160.2660  133.3210 C   0  0  0  0  0  0  0  0  0  0  0  0
  146.8980  158.9940  133.2590 C   0  0  0  0  0  0  0  0  0  0  0  0
  148.3100  158.7480  132.8990 C   0  0  0  0  0  0  0  0  0  0  0  0
  148.6500  158.0800  131.6870 N   0  0  0  0  0  0  0  0  0  0  0  0
  149.2280  159.1790  133.6460 O   0  0  0  0  0  0  0  0  0  0  0  0
  145.9520  158.0400  133.4930 N   0  0  0  0  0  0  0  0  0  0  0  0
  146.1470  156.6210  133.6110 C   0  0  0  0  0  0  0  0  0  0  0  0
  145.6890  155.9960  134.6040 O   0  0  0  0  0  0  0  0  0  0  0  0
  146.8680  155.9290  132.6460 O   0  0  0  0  0  0  0  0  0  0  0  0
  144.7950  158.7110  133.6930 C   0  0  0  0  0  0  0  0  0  0  0  0
  143.5350  158.1940  134.0140 C   0  0  0  0  0  0  0  0  0  0  0  0
  139.3978  159.5957  132.0923 H   0  0  0  0  0  0  0  0  0  0  0  0
  140.8911  158.6436  131.7922 H   0  0  0  0  0  0  0  0  0  0  0  0
  139.2907  157.8279  131.7922 H   0  0  0  0  0  0  0  0  0  0  0  0
  141.8648  161.1954  134.2419 H   0  0  0  0  0  0  0  0  0  0  0  0
  144.1605  162.0636  133.6917 H   0  0  0  0  0  0  0  0  0  0  0  0
  146.8460  161.2296  133.1819 H   0  0  0  0  0  0  0  0  0  0  0  0
  148.2880  157.1220  131.4810 H   0  0  0  0  0  0  0  0  0  0  0  0
  143.3834  157.1101  134.1246 H   0  0  0  0  0  0  0  0  0  0  0  0
  1  2  1  0
  2  3  2  0
  3  4  1  0
  4  5  1  0
  5  6  2  0
  6  7  1  0
  7  8  2  0
  8  9  1  0
  9 10  2  0
 10 11  1  0
 11 12  2  0
 12 13  1  0
 13 14  1  0
 13 15  2  0
 12 16  1  0
 16 17  1  0
 17 18  2  0
 17 19  1  0
 16 20  1  0
 20 21  2  0
  6  2  1  0
 21  7  1  0
 20 10  1  0
  1 22  1  0
  1 23  1  0
  1 24  1  0
  8 25  1  0
  9 26  1  0
 11 27  1  0
 14 28  1  0
 21 29  1  0
M  CHG  3   4  -1  14  -1  19  -1
M  END
>  <UniqueID>  (60) 
60

>  <SMILES>  (60) 
Cc1n[n-]nc1-c1ccc2cc(C([NH-])=O)n(C(=O)[O-])c2c1

>  <Energy>  (60) 
108.88412556508663

>  <Genealogy>  (60) 
Cc1n[n-]nc1-c1ccc2cc(C([NH-])=O)n(C(=O)[O-])c2c1 (protonated)
Cc1n[n-]nc1-c1ccc2cc(C([NH-])=O)n(C(=O)[O-])c2c1 (3D coordinates assigned)
Cc1n[n-]nc1-c1ccc2cc(C([NH-])=O)n(C(=O)[O-])c2c1 (optimized conformer: 108.88412556508663 kcal/mol)

>  <smiles>  (60) 
Cc1n[nH]nc1-c1ccc2cc(C(N)=O)n(C(=O)O)c2c1

>  <score_type>  (60) 
oracle

>  <origin>  (60) 
adg

>  <m_score__min__energy>  (60) 
-6.5599999999999996

>  <m_primary>  (60) 
energy

$$$$
60:0
     RDKit          3D

 35 36  0  0  0  0  0  0  0  0999 V2000
  148.4810  161.5530  131.4680 N   0  0  0  0  0  0  0  0  0  0  0  0
  149.0060  160.2750  131.1010 C   0  0  0  0  0  0  0  0  0  0  0  0
  149.7480  160.1820  130.0870 O   0  0  0  0  0  0  0  0  0  0  0  0
  148.6430  159.0550  131.8490 C   0  0  0  0  0  0  0  0  0  0  0  0
  149.3820  157.8770  131.7970 C   0  0  0  0  0  0  0  0  0  0  0  0
  148.6870  156.9780  132.5730 C   0  0  0  0  0  0  0  0  0  0  0  0
  148.9840  155.6560  132.8890 C   0  0  0  0  0  0  0  0  0  0  0  0
  148.1110  154.9740  133.7530 C   0  0  0  0  0  0  0  0  0  0  0  0
  146.9670  155.6210  134.2810 C   0  0  0  0  0  0  0  0  0  0  0  0
  146.0670  154.8960  135.2430 C   0  0  0  0  0  0  0  0  0  0  0  0
  146.8860  154.1760  136.2660 C   0  0  0  0  0  0  0  0  0  0  0  0
  146.5020  153.0640  136.7160 O   0  0  0  0  0  0  0  0  0  0  0  0
  148.0480  154.7540  136.7600 O   0  0  0  0  0  0  0  0  0  0  0  0
  146.7050  156.9690  133.9480 C   0  0  0  0  0  0  0  0  0  0  0  0
  147.5800  157.6180  133.0690 C   0  0  0  0  0  0  0  0  0  0  0  0
  147.5400  158.8990  132.6340 N   0  0  0  0  0  0  0  0  0  0  0  0
  146.6050  159.9150  133.0330 C   0  0  0  0  0  0  0  0  0  0  0  0
  146.9970  160.8970  133.7230 O   0  0  0  0  0  0  0  0  0  0  0  0
  145.2620  159.8070  132.6560 O   0  0  0  0  0  0  0  0  0  0  0  0
  144.2040  159.5500  133.5780 C   0  0  0  0  0  0  0  0  0  0  0  0
  143.5950  160.8580  134.0750 C   0  0  0  0  0  0  0  0  0  0  0  0
  144.4280  161.9260  133.7220 O   0  0  0  0  0  0  0  0  0  0  0  0
  147.7380  161.6410  132.1940 H   0  0  0  0  0  0  0  0  0  0  0  0
  148.7820  162.4090  130.9530 H   0  0  0  0  0  0  0  0  0  0  0  0
  150.3213  157.7019  131.2519 H   0  0  0  0  0  0  0  0  0  0  0  0
  149.8745  155.1603  132.4753 H   0  0  0  0  0  0  0  0  0  0  0  0
  148.3179  153.9276  134.0220 H   0  0  0  0  0  0  0  0  0  0  0  0
  145.4115  155.6220  135.7463 H   0  0  0  0  0  0  0  0  0  0  0  0
  145.4589  154.1661  134.6884 H   0  0  0  0  0  0  0  0  0  0  0  0
  145.8354  157.4951  134.3689 H   0  0  0  0  0  0  0  0  0  0  0  0
  143.4251  158.9556  133.0779 H   0  0  0  0  0  0  0  0  0  0  0  0
  144.6099  158.9983  134.4387 H   0  0  0  0  0  0  0  0  0  0  0  0
  142.6049  160.9986  133.6168 H   0  0  0  0  0  0  0  0  0  0  0  0
  143.4914  160.8209  135.1695 H   0  0  0  0  0  0  0  0  0  0  0  0
  145.0610  161.5690  133.0460 H   0  0  0  0  0  0  0  0  0  0  0  0
  1  2  1  0
  2  3  2  0
  2  4  1  0
  4  5  2  0
  5  6  1  0
  6  7  2  0
  7  8  1  0
  8  9  2  0
  9 10  1  0
 10 11  1  0
 11 12  2  0
 11 13  1  0
  9 14  1  0
 14 15  2  0
 15 16  1  0
 16 17  1  0
 17 18  2  0
 17 19  1  0
 19 20  1  0
 20 21  1  0
 21 22  1  0
 16  4  1  0
 15  6  1  0
  1 23  1  0
  1 24  1  0
  5 25  1  0
  7 26  1  0
  8 27  1  0
 10 28  1  0
 10 29  1  0
 14 30  1  0
 20 31  1  0
 20 32  1  0
 21 33  1  0
 21 34  1  0
 22 35  1  0
M  CHG  1  13  -1
M  END
>  <UniqueID>  (61) 
61

>  <SMILES>  (61) 
NC(=O)c1cc2ccc(CC(=O)[O-])cc2n1C(=O)OCCO

>  <Energy>  (61) 
68.66536528208897

>  <Genealogy>  (61) 
NC(=O)c1cc2ccc(CC(=O)[O-])cc2n1C(=O)OCCO (protonated)
NC(=O)c1cc2ccc(CC(=O)[O-])cc2n1C(=O)OCCO (3D coordinates assigned)
NC(=O)c1cc2ccc(CC(=O)[O-])cc2n1C(=O)OCCO (optimized conformer: 68.66536528208897 kcal/mol)

>  <smiles>  (61) 
NC(=O)c1cc2ccc(CC(=O)O)cc2n1C(=O)OCCO

>  <score_type>  (61) 
oracle

>  <origin>  (61) 
adg

>  <m_score__min__energy>  (61) 
-6.5300000000000002

>  <m_primary>  (61) 
energy

$$$$
61:0
     RDKit          3D

 37 38  0  0  0  0  0  0  0  0999 V2000
  140.7490  159.2060  133.8850 C   0  0  0  0  0  0  0  0  0  0  0  0
  141.5170  158.5910  135.0690 C   0  0  0  0  0  0  0  0  0  0  0  0
  141.1660  157.1000  135.2330 C   0  0  0  0  0  0  0  0  0  0  0  0
  141.1280  159.3360  136.3550 C   0  0  0  0  0  0  0  0  0  0  0  0
  142.9320  158.7590  134.8960 O   0  0  0  0  0  0  0  0  0  0  0  0
  143.6580  158.5410  133.7150 C   0  0  0  0  0  0  0  0  0  0  0  0
  143.1710  157.8650  132.7710 O   0  0  0  0  0  0  0  0  0  0  0  0
  144.9860  159.0750  133.5990 N   0  0  0  0  0  0  0  0  0  0  0  0
  145.3670  160.3830  133.5900 C   0  0  0  0  0  0  0  0  0  0  0  0
  144.4880  161.5470  133.8340 C   0  0  0  0  0  0  0  0  0  0  0  0
  143.0750  161.4040  133.7210 N   0  0  0  0  0  0  0  0  0  0  0  0
  144.9730  162.6760  134.1080 O   0  0  0  0  0  0  0  0  0  0  0  0
  146.7430  160.4890  133.3960 C   0  0  0  0  0  0  0  0  0  0  0  0
  147.1980  159.1940  133.2960 C   0  0  0  0  0  0  0  0  0  0  0  0
  148.4850  158.7110  133.0790 C   0  0  0  0  0  0  0  0  0  0  0  0
  148.6610  157.3210  132.9860 C   0  0  0  0  0  0  0  0  0  0  0  0
  147.5570  156.4390  133.1200 C   0  0  0  0  0  0  0  0  0  0  0  0
  147.7480  154.9530  132.9560 C   0  0  0  0  0  0  0  0  0  0  0  0
  147.8550  154.3340  134.1900 F   0  0  0  0  0  0  0  0  0  0  0  0
  146.6620  154.4260  132.2800 F   0  0  0  0  0  0  0  0  0  0  0  0
  148.8990  154.6860  132.2360 F   0  0  0  0  0  0  0  0  0  0  0  0
  146.2610  156.9710  133.3140 C   0  0  0  0  0  0  0  0  0  0  0  0
  146.1190  158.3600  133.4220 C   0  0  0  0  0  0  0  0  0  0  0  0
  139.9435  159.8510  134.2658 H   0  0  0  0  0  0  0  0  0  0  0  0
  141.4388  159.8043  133.2716 H   0  0  0  0  0  0  0  0  0  0  0  0
  140.3160  158.4021  133.2716 H   0  0  0  0  0  0  0  0  0  0  0  0
  141.1078  156.8526  136.3032 H   0  0  0  0  0  0  0  0  0  0  0  0
  140.1956  156.8972  134.7564 H   0  0  0  0  0  0  0  0  0  0  0  0
  141.9441  156.4856  134.7564 H   0  0  0  0  0  0  0  0  0  0  0  0
  141.4370  158.7443  137.2293 H   0  0  0  0  0  0  0  0  0  0  0  0
  141.6304  160.3143  136.3783 H   0  0  0  0  0  0  0  0  0  0  0  0
  140.0381  159.4829  136.3783 H   0  0  0  0  0  0  0  0  0  0  0  0
  142.6390  160.4630  133.5930 H   0  0  0  0  0  0  0  0  0  0  0  0
  147.3388  161.4117  133.3356 H   0  0  0  0  0  0  0  0  0  0  0  0
  149.3390  159.3977  132.9832 H   0  0  0  0  0  0  0  0  0  0  0  0
  149.6659  156.9109  132.8072 H   0  0  0  0  0  0  0  0  0  0  0  0
  145.3848  156.3090  133.3786 H   0  0  0  0  0  0  0  0  0  0  0  0
  1  2  1  0
  2  3  1  0
  2  4  1  0
  2  5  1  0
  5  6  1  0
  6  7  2  0
  6  8  1  0
  8  9  1  0
  9 10  1  0
 10 11  1  0
 10 12  2  0
  9 13  2  0
 13 14  1  0
 14 15  2  0
 15 16  1  0
 16 17  2  0
 17 18  1  0
 18 19  1  0
 18 20  1  0
 18 21  1  0
 17 22  1  0
 22 23  2  0
 23  8  1  0
 23 14  1  0
  1 24  1  0
  1 25  1  0
  1 26  1  0
  3 27  1  0
  3 28  1  0
  3 29  1  0
  4 30  1  0
  4 31  1  0
  4 32  1  0
 11 33  1  0
 13 34  1  0
 15 35  1  0
 16 36  1  0
 22 37  1  0
M  CHG  1  11  -1
M  END
>  <UniqueID>  (62) 
62

>  <SMILES>  (62) 
CC(C)(C)OC(=O)n1c(C([NH-])=O)cc2ccc(C(F)(F)F)cc21

>  <Energy>  (62) 
71.37273300153687

>  <Genealogy>  (62) 
CC(C)(C)OC(=O)n1c(C([NH-])=O)cc2ccc(C(F)(F)F)cc21 (protonated)
CC(C)(C)OC(=O)n1c(C([NH-])=O)cc2ccc(C(F)(F)F)cc21 (3D coordinates assigned)
CC(C)(C)OC(=O)n1c(C([NH-])=O)cc2ccc(C(F)(F)F)cc21 (optimized conformer: 71.37273300153687 kcal/mol)

>  <smiles>  (62) 
CC(C)(C)OC(=O)n1c(C(N)=O)cc2ccc(C(F)(F)F)cc21

>  <score_type>  (62) 
oracle

>  <origin>  (62) 
adg

>  <m_score__min__energy>  (62) 
-6.2699999999999996

>  <m_primary>  (62) 
energy

$$$$
62:0
     RDKit          3D

 41 43  0  0  0  0  0  0  0  0999 V2000
  141.7030  160.8950  133.7500 C   0  0  0  0  0  0  0  0  0  0  0  0
  143.1420  160.6890  133.6580 N   0  0  0  0  0  0  0  0  0  0  0  0
  143.7520  159.5280  133.3610 C   0  0  0  0  0  0  0  0  0  0  0  0
  145.1200  159.7280  133.4410 C   0  0  0  0  0  0  0  0  0  0  0  0
  146.1980  158.7350  133.1960 C   0  0  0  0  0  0  0  0  0  0  0  0
  147.5230  159.1670  132.9260 C   0  0  0  0  0  0  0  0  0  0  0  0
  148.5530  158.2380  132.7050 C   0  0  0  0  0  0  0  0  0  0  0  0
  148.2330  156.8860  132.7480 C   0  0  0  0  0  0  0  0  0  0  0  0
  149.0430  155.7830  132.6070 C   0  0  0  0  0  0  0  0  0  0  0  0
  148.2000  154.6870  132.7590 C   0  0  0  0  0  0  0  0  0  0  0  0
  148.6550  153.2880  132.6280 C   0  0  0  0  0  0  0  0  0  0  0  0
  147.9750  152.2230  133.2940 N   0  0  0  0  0  0  0  0  0  0  0  0
  149.6260  153.0220  131.8710 O   0  0  0  0  0  0  0  0  0  0  0  0
  146.9200  155.0910  132.9990 N   0  0  0  0  0  0  0  0  0  0  0  0
  145.7950  154.2590  133.3300 C   0  0  0  0  0  0  0  0  0  0  0  0
  145.4980  153.2750  132.6010 O   0  0  0  0  0  0  0  0  0  0  0  0
  145.0330  154.5480  134.4670 O   0  0  0  0  0  0  0  0  0  0  0  0
  145.4780  154.2590  135.7880 C   0  0  0  0  0  0  0  0  0  0  0  0
  146.9350  154.6840  135.9490 C   0  0  0  0  0  0  0  0  0  0  0  0
  147.6280  153.8520  136.9810 C   0  0  0  0  0  0  0  0  0  0  0  0
  147.3340  152.6350  137.1160 O   0  0  0  0  0  0  0  0  0  0  0  0
  148.6350  154.4080  137.7610 O   0  0  0  0  0  0  0  0  0  0  0  0
  146.9570  156.4440  132.9860 C   0  0  0  0  0  0  0  0  0  0  0  0
  145.9160  157.3480  133.2320 C   0  0  0  0  0  0  0  0  0  0  0  0
  145.2580  161.0570  133.8130 C   0  0  0  0  0  0  0  0  0  0  0  0
  144.0400  161.6170  133.9480 N   0  0  0  0  0  0  0  0  0  0  0  0
  141.4056  160.9376  134.8082 H   0  0  0  0  0  0  0  0  0  0  0  0
  141.4356  161.8406  133.2556 H   0  0  0  0  0  0  0  0  0  0  0  0
  141.1811  160.0624  133.2556 H   0  0  0  0  0  0  0  0  0  0  0  0
  143.2515  158.5839  133.0999 H   0  0  0  0  0  0  0  0  0  0  0  0
  147.7460  160.2435  132.8894 H   0  0  0  0  0  0  0  0  0  0  0  0
  149.5821  158.5704  132.5039 H   0  0  0  0  0  0  0  0  0  0  0  0
  150.1260  155.7704  132.4150 H   0  0  0  0  0  0  0  0  0  0  0  0
  147.0740  152.3880  133.7930 H   0  0  0  0  0  0  0  0  0  0  0  0
  148.3380  151.2460  133.2260 H   0  0  0  0  0  0  0  0  0  0  0  0
  144.8559  154.8074  136.5107 H   0  0  0  0  0  0  0  0  0  0  0  0
  145.3935  153.1775  135.9705 H   0  0  0  0  0  0  0  0  0  0  0  0
  147.4523  154.5656  134.9855 H   0  0  0  0  0  0  0  0  0  0  0  0
  146.9585  155.7346  136.2740 H   0  0  0  0  0  0  0  0  0  0  0  0
  144.8996  156.9876  133.4488 H   0  0  0  0  0  0  0  0  0  0  0  0
  146.2153  161.5746  133.9733 H   0  0  0  0  0  0  0  0  0  0  0  0
  1  2  1  0
  2  3  1  0
  3  4  2  0
  4  5  1  0
  5  6  2  0
  6  7  1  0
  7  8  2  0
  8  9  1  0
  9 10  2  0
 10 11  1  0
 11 12  1  0
 11 13  2  0
 10 14  1  0
 14 15  1  0
 15 16  2  0
 15 17  1  0
 17 18  1  0
 18 19  1  0
 19 20  1  0
 20 21  2  0
 20 22  1  0
 14 23  1  0
 23 24  2  0
  4 25  1  0
 25 26  2  0
 26  2  1  0
 24  5  1  0
 23  8  1  0
  1 27  1  0
  1 28  1  0
  1 29  1  0
  3 30  1  0
  6 31  1  0
  7 32  1  0
  9 33  1  0
 12 34  1  0
 12 35  1  0
 18 36  1  0
 18 37  1  0
 19 38  1  0
 19 39  1  0
 24 40  1  0
 25 41  1  0
M  CHG  1  22  -1
M  END
>  <UniqueID>  (63) 
63

>  <SMILES>  (63) 
Cn1cc(-c2ccc3cc(C(N)=O)n(C(=O)OCCC(=O)[O-])c3c2)cn1

>  <Energy>  (63) 
107.85515027247166

>  <Genealogy>  (63) 
Cn1cc(-c2ccc3cc(C(N)=O)n(C(=O)OCCC(=O)[O-])c3c2)cn1 (protonated)
Cn1cc(-c2ccc3cc(C(N)=O)n(C(=O)OCCC(=O)[O-])c3c2)cn1 (3D coordinates assigned)
Cn1cc(-c2ccc3cc(C(N)=O)n(C(=O)OCCC(=O)[O-])c3c2)cn1 (optimized conformer: 107.85515027247166 kcal/mol)

>  <smiles>  (63) 
Cn1cc(-c2ccc3cc(C(N)=O)n(C(=O)OCCC(=O)O)c3c2)cn1

>  <score_type>  (63) 
oracle

>  <origin>  (63) 
adg

>  <m_score__min__energy>  (63) 
-7.46

>  <m_primary>  (63) 
energy

$$$$
63:0
     RDKit          3D

 57 59  0  0  0  0  0  0  0  0999 V2000
  140.6330  158.9120  131.8360 C   0  0  0  0  0  0  0  0  0  0  0  0
  139.1140  159.0960  131.9830 C   0  0  0  0  0  0  0  0  0  0  0  0
  138.4080  158.3170  130.8570 C   0  0  0  0  0  0  0  0  0  0  0  0
  138.7850  160.5990  131.8940 C   0  0  0  0  0  0  0  0  0  0  0  0
  138.7460  158.5740  133.2690 O   0  0  0  0  0  0  0  0  0  0  0  0
  139.1440  157.3410  133.8100 C   0  0  0  0  0  0  0  0  0  0  0  0
  139.1180  156.2940  133.1060 O   0  0  0  0  0  0  0  0  0  0  0  0
  139.5720  157.2900  135.1920 N   0  0  0  0  0  0  0  0  0  0  0  0
  139.8540  158.6130  135.7620 C   0  0  0  0  0  0  0  0  0  0  0  0
  141.1110  159.2820  135.1850 C   0  0  0  0  0  0  0  0  0  0  0  0
  142.2000  158.3580  134.7970 N   0  0  0  0  0  0  0  0  0  0  0  0
  143.4520  158.9190  134.2890 C   0  0  0  0  0  0  0  0  0  0  0  0
  143.6030  160.3270  134.0860 C   0  0  0  0  0  0  0  0  0  0  0  0
  144.8050  160.8750  133.6140 C   0  0  0  0  0  0  0  0  0  0  0  0
  145.8550  160.0110  133.3390 C   0  0  0  0  0  0  0  0  0  0  0  0
  147.1330  160.2820  132.9060 C   0  0  0  0  0  0  0  0  0  0  0  0
  147.7640  159.0430  132.8230 C   0  0  0  0  0  0  0  0  0  0  0  0
  149.1410  158.8620  132.3190 C   0  0  0  0  0  0  0  0  0  0  0  0
  149.7270  157.5660  132.2350 N   0  0  0  0  0  0  0  0  0  0  0  0
  149.7940  159.8610  131.9150 O   0  0  0  0  0  0  0  0  0  0  0  0
  146.9100  158.0480  133.1950 N   0  0  0  0  0  0  0  0  0  0  0  0
  147.2030  156.6510  133.3360 C   0  0  0  0  0  0  0  0  0  0  0  0
  147.6920  156.0100  132.3650 O   0  0  0  0  0  0  0  0  0  0  0  0
  146.9270  156.0010  134.5440 O   0  0  0  0  0  0  0  0  0  0  0  0
  147.6380  154.8510  134.9950 C   0  0  0  0  0  0  0  0  0  0  0  0
  146.8020  154.0670  135.9560 C   0  0  0  0  0  0  0  0  0  0  0  0
  147.3370  153.2170  136.7160 O   0  0  0  0  0  0  0  0  0  0  0  0
  145.4260  154.2590  135.9960 O   0  0  0  0  0  0  0  0  0  0  0  0
  145.7450  158.6590  133.5060 C   0  0  0  0  0  0  0  0  0  0  0  0
  144.5680  158.0830  133.9960 C   0  0  0  0  0  0  0  0  0  0  0  0
  142.0120  156.8920  134.7640 C   0  0  0  0  0  0  0  0  0  0  0  0
  140.7110  156.3890  135.4040 C   0  0  0  0  0  0  0  0  0  0  0  0
  141.0938  158.8562  132.8333 H   0  0  0  0  0  0  0  0  0  0  0  0
  140.8381  157.9824  131.2848 H   0  0  0  0  0  0  0  0  0  0  0  0
  141.0541  159.7657  131.2848 H   0  0  0  0  0  0  0  0  0  0  0  0
  137.7309  157.5699  131.2967 H   0  0  0  0  0  0  0  0  0  0  0  0
  137.8290  159.0156  130.2351 H   0  0  0  0  0  0  0  0  0  0  0  0
  139.1600  157.8093  130.2351 H   0  0  0  0  0  0  0  0  0  0  0  0
  138.6939  161.0151  132.9082 H   0  0  0  0  0  0  0  0  0  0  0  0
  139.5905  161.1194  131.3551 H   0  0  0  0  0  0  0  0  0  0  0  0
  137.8358  160.7353  131.3551 H   0  0  0  0  0  0  0  0  0  0  0  0
  138.7730  156.8940  135.7420 H   0  0  0  0  0  0  0  0  0  0  0  0
  138.9916  159.2667  135.5644 H   0  0  0  0  0  0  0  0  0  0  0  0
  140.0340  158.4667  136.8373 H   0  0  0  0  0  0  0  0  0  0  0  0
  140.8133  159.8501  134.2913 H   0  0  0  0  0  0  0  0  0  0  0  0
  141.5183  159.9090  135.9918 H   0  0  0  0  0  0  0  0  0  0  0  0
  142.7572  160.9953  134.3050 H   0  0  0  0  0  0  0  0  0  0  0  0
  144.9120  161.9597  133.4660 H   0  0  0  0  0  0  0  0  0  0  0  0
  147.5642  161.2672  132.6748 H   0  0  0  0  0  0  0  0  0  0  0  0
  149.4440  156.8970  131.4860 H   0  0  0  0  0  0  0  0  0  0  0  0
  147.8883  154.2175  134.1313 H   0  0  0  0  0  0  0  0  0  0  0  0
  148.5577  155.1759  135.5036 H   0  0  0  0  0  0  0  0  0  0  0  0
  144.5048  156.9962  134.1534 H   0  0  0  0  0  0  0  0  0  0  0  0
  142.0209  156.5707  133.7120 H   0  0  0  0  0  0  0  0  0  0  0  0
  142.8321  156.4640  135.3592 H   0  0  0  0  0  0  0  0  0  0  0  0
  140.4654  155.4083  134.9706 H   0  0  0  0  0  0  0  0  0  0  0  0
  140.8831  156.3322  136.4890 H   0  0  0  0  0  0  0  0  0  0  0  0
  1  2  1  0
  2  3  1  0
  2  4  1  0
  2  5  1  0
  5  6  1  0
  6  7  2  0
  6  8  1  0
  8  9  1  0
  9 10  1  0
 10 11  1  0
 11 12  1  0
 12 13  2  0
 13 14  1  0
 14 15  2  0
 15 16  1  0
 16 17  2  0
 17 18  1  0
 18 19  1  0
 18 20  2  0
 17 21  1  0
 21 22  1  0
 22 23  2  0
 22 24  1  0
 24 25  1  0
 25 26  1  0
 26 27  2  0
 26 28  1  0
 21 29  1  0
 29 30  2  0
 11 31  1  0
 31 32  1  0
 32  8  1  0
 30 12  1  0
 29 15  1  0
  1 33  1  0
  1 34  1  0
  1 35  1  0
  3 36  1  0
  3 37  1  0
  3 38  1  0
  4 39  1  0
  4 40  1  0
  4 41  1  0
  8 42  1  0
  9 43  1  0
  9 44  1  0
 10 45  1  0
 10 46  1  0
 13 47  1  0
 14 48  1  0
 16 49  1  0
 19 50  1  0
 25 51  1  0
 25 52  1  0
 30 53  1  0
 31 54  1  0
 31 55  1  0
 32 56  1  0
 32 57  1  0
M  CHG  3   8   1  19  -1  28  -1
M  END
>  <UniqueID>  (64) 
64

>  <SMILES>  (64) 
CC(C)(C)OC(=O)[NH+]1CCN(c2ccc3cc(C([NH-])=O)n(C(=O)OCC(=O)[O-])c3c2)CC1

>  <Energy>  (64) 
103.59948335343746

>  <Genealogy>  (64) 
CC(C)(C)OC(=O)[NH+]1CCN(c2ccc3cc(C([NH-])=O)n(C(=O)OCC(=O)[O-])c3c2)CC1 (protonated)
CC(C)(C)OC(=O)[NH+]1CCN(c2ccc3cc(C([NH-])=O)n(C(=O)OCC(=O)[O-])c3c2)CC1 (3D coordinates assigned)
CC(C)(C)OC(=O)[NH+]1CCN(c2ccc3cc(C([NH-])=O)n(C(=O)OCC(=O)[O-])c3c2)CC1 (nonaromatic ring conformer: 103.59948335343746 kcal/mol)

>  <smiles>  (64) 
CC(C)(C)OC(=O)N1CCN(c2ccc3cc(C(N)=O)n(C(=O)OCC(=O)O)c3c2)CC1

>  <score_type>  (64) 
oracle

>  <origin>  (64) 
adg

>  <m_score__min__energy>  (64) 
-7.9699999999999998

>  <m_primary>  (64) 
energy

$$$$
64:0
     RDKit          3D

 44 45  0  0  0  0  0  0  0  0999 V2000
  149.2700  160.2150  131.9930 C   0  0  0  0  0  0  0  0  0  0  0  0
  148.3320  159.4380  132.8070 N   0  0  0  0  0  0  0  0  0  0  0  0
  148.7770  158.7890  134.0430 C   0  0  0  0  0  0  0  0  0  0  0  0
  146.9480  159.3610  132.4150 C   0  0  0  0  0  0  0  0  0  0  0  0
  146.5120  160.0900  131.4820 O   0  0  0  0  0  0  0  0  0  0  0  0
  146.0490  158.4600  133.0740 N   0  0  0  0  0  0  0  0  0  0  0  0
  144.8330  158.7420  133.6180 C   0  0  0  0  0  0  0  0  0  0  0  0
  144.2220  160.0850  133.7170 C   0  0  0  0  0  0  0  0  0  0  0  0
  145.0290  161.2590  133.7460 N   0  0  0  0  0  0  0  0  0  0  0  0
  142.9690  160.1960  133.7930 O   0  0  0  0  0  0  0  0  0  0  0  0
  144.2400  157.5780  134.1060 C   0  0  0  0  0  0  0  0  0  0  0  0
  145.1380  156.5690  133.8370 C   0  0  0  0  0  0  0  0  0  0  0  0
  145.0570  155.2030  134.0870 C   0  0  0  0  0  0  0  0  0  0  0  0
  146.1310  154.3940  133.6760 C   0  0  0  0  0  0  0  0  0  0  0  0
  147.2600  154.9620  133.0310 C   0  0  0  0  0  0  0  0  0  0  0  0
  148.4000  154.0830  132.5850 C   0  0  0  0  0  0  0  0  0  0  0  0
  148.6840  152.8920  133.5340 C   0  0  0  0  0  0  0  0  0  0  0  0
  148.4290  151.5360  132.9810 N   0  0  0  0  0  0  0  0  0  0  0  0
  147.3260  151.5040  132.0050 C   0  0  0  0  0  0  0  0  0  0  0  0
  149.6380  150.8930  132.4350 C   0  0  0  0  0  0  0  0  0  0  0  0
  147.2960  156.3520  132.7800 C   0  0  0  0  0  0  0  0  0  0  0  0
  146.2190  157.1300  133.2110 C   0  0  0  0  0  0  0  0  0  0  0  0
  149.9485  160.7771  132.6515 H   0  0  0  0  0  0  0  0  0  0  0  0
  149.8558  159.5340  131.3581 H   0  0  0  0  0  0  0  0  0  0  0  0
  148.7099  160.9173  131.3581 H   0  0  0  0  0  0  0  0  0  0  0  0
  148.3936  159.3481  134.9093 H   0  0  0  0  0  0  0  0  0  0  0  0
  148.3950  157.7579  134.0738 H   0  0  0  0  0  0  0  0  0  0  0  0
  149.8765  158.7737  134.0738 H   0  0  0  0  0  0  0  0  0  0  0  0
  145.7350  161.4440  133.0000 H   0  0  0  0  0  0  0  0  0  0  0  0
  143.2621  157.4853  134.6010 H   0  0  0  0  0  0  0  0  0  0  0  0
  144.1803  154.7694  134.5904 H   0  0  0  0  0  0  0  0  0  0  0  0
  146.0956  153.3095  133.8563 H   0  0  0  0  0  0  0  0  0  0  0  0
  148.1591  153.6824  131.5893 H   0  0  0  0  0  0  0  0  0  0  0  0
  149.3037  154.7102  132.5812 H   0  0  0  0  0  0  0  0  0  0  0  0
  149.7433  152.9413  133.8264 H   0  0  0  0  0  0  0  0  0  0  0  0
  147.9774  153.0066  134.3692 H   0  0  0  0  0  0  0  0  0  0  0  0
  148.1200  150.9470  133.7920 H   0  0  0  0  0  0  0  0  0  0  0  0
  146.3647  151.4761  132.5389 H   0  0  0  0  0  0  0  0  0  0  0  0
  147.3688  152.4038  131.3737 H   0  0  0  0  0  0  0  0  0  0  0  0
  147.4209  150.6082  131.3737 H   0  0  0  0  0  0  0  0  0  0  0  0
  150.2778  150.5527  133.2625 H   0  0  0  0  0  0  0  0  0  0  0  0
  149.3474  150.0303  131.8175 H   0  0  0  0  0  0  0  0  0  0  0  0
  150.1909  151.6162  131.8175 H   0  0  0  0  0  0  0  0  0  0  0  0
  148.1499  156.8095  132.2588 H   0  0  0  0  0  0  0  0  0  0  0  0
  1  2  1  0
  2  3  1  0
  2  4  1  0
  4  5  2  0
  4  6  1  0
  6  7  1  0
  7  8  1  0
  8  9  1  0
  8 10  2  0
  7 11  2  0
 11 12  1  0
 12 13  2  0
 13 14  1  0
 14 15  2  0
 15 16  1  0
 16 17  1  0
 17 18  1  0
 18 19  1  0
 18 20  1  0
 15 21  1  0
 21 22  2  0
 22  6  1  0
 22 12  1  0
  1 23  1  0
  1 24  1  0
  1 25  1  0
  3 26  1  0
  3 27  1  0
  3 28  1  0
  9 29  1  0
 11 30  1  0
 13 31  1  0
 14 32  1  0
 16 33  1  0
 16 34  1  0
 17 35  1  0
 17 36  1  0
 18 37  1  0
 19 38  1  0
 19 39  1  0
 19 40  1  0
 20 41  1  0
 20 42  1  0
 20 43  1  0
 21 44  1  0
M  CHG  2   9  -1  18   1
M  END
>  <UniqueID>  (65) 
65

>  <SMILES>  (65) 
CN(C)C(=O)n1c(C([NH-])=O)cc2ccc(CC[NH+](C)C)cc21

>  <Energy>  (65) 
82.88141658117206

>  <Genealogy>  (65) 
CN(C)C(=O)n1c(C([NH-])=O)cc2ccc(CC[NH+](C)C)cc21 (protonated)
CN(C)C(=O)n1c(C([NH-])=O)cc2ccc(CC[NH+](C)C)cc21 (3D coordinates assigned)
CN(C)C(=O)n1c(C([NH-])=O)cc2ccc(CC[NH+](C)C)cc21 (optimized conformer: 82.88141658117206 kcal/mol)

>  <smiles>  (65) 
CN(C)CCc1ccc2cc(C(N)=O)n(C(=O)N(C)C)c2c1

>  <score_type>  (65) 
oracle

>  <origin>  (65) 
adg

>  <m_score__min__energy>  (65) 
-6.1500000000000004

>  <m_primary>  (65) 
energy

$$$$
65:0
     RDKit          3D

 24 25  0  0  0  0  0  0  0  0999 V2000
  141.2020  160.5200  133.7800 N   0  0  0  0  0  0  0  0  0  0  0  0
  142.1120  159.8210  134.6240 C   0  0  0  0  0  0  0  0  0  0  0  0
  141.7290  159.4380  135.7610 O   0  0  0  0  0  0  0  0  0  0  0  0
  143.4750  159.4920  134.1610 C   0  0  0  0  0  0  0  0  0  0  0  0
  143.9420  158.1880  134.0070 C   0  0  0  0  0  0  0  0  0  0  0  0
  145.2040  158.3140  133.4690 C   0  0  0  0  0  0  0  0  0  0  0  0
  146.1340  157.3370  133.1270 C   0  0  0  0  0  0  0  0  0  0  0  0
  147.3740  157.7590  132.6180 C   0  0  0  0  0  0  0  0  0  0  0  0
  147.6590  159.1400  132.4470 C   0  0  0  0  0  0  0  0  0  0  0  0
  149.0140  159.5800  131.9550 C   0  0  0  0  0  0  0  0  0  0  0  0
  148.9730  160.9310  131.6630 F   0  0  0  0  0  0  0  0  0  0  0  0
  149.9800  159.3560  132.9210 F   0  0  0  0  0  0  0  0  0  0  0  0
  149.3710  158.8820  130.8160 F   0  0  0  0  0  0  0  0  0  0  0  0
  146.6930  160.1010  132.8290 C   0  0  0  0  0  0  0  0  0  0  0  0
  145.4630  159.6510  133.3190 C   0  0  0  0  0  0  0  0  0  0  0  0
  144.4150  160.3870  133.7450 N   0  0  0  0  0  0  0  0  0  0  0  0
  144.3690  161.8190  133.8260 C   0  0  0  0  0  0  0  0  0  0  0  0
  143.3810  162.4450  133.3600 O   0  0  0  0  0  0  0  0  0  0  0  0
  145.7580  162.7430  134.5100 S   0  0  0  0  0  0  0  0  0  0  0  0
  141.4690  161.4270  133.3370 H   0  0  0  0  0  0  0  0  0  0  0  0
  143.4151  157.2564  134.2610 H   0  0  0  0  0  0  0  0  0  0  0  0
  145.9057  156.2681  133.2512 H   0  0  0  0  0  0  0  0  0  0  0  0
  148.1336  157.0104  132.3486 H   0  0  0  0  0  0  0  0  0  0  0  0
  146.9047  161.1770  132.7425 H   0  0  0  0  0  0  0  0  0  0  0  0
  1  2  1  0
  2  3  2  0
  2  4  1  0
  4  5  2  0
  5  6  1  0
  6  7  2  0
  7  8  1  0
  8  9  2  0
  9 10  1  0
 10 11  1  0
 10 12  1  0
 10 13  1  0
  9 14  1  0
 14 15  2  0
 15 16  1  0
 16 17  1  0
 17 18  2  0
 17 19  1  0
 16  4  1  0
 15  6  1  0
  1 20  1  0
  5 21  1  0
  7 22  1  0
  8 23  1  0
 14 24  1  0
M  CHG  2   1  -1  19  -1
M  END
>  <UniqueID>  (66) 
66

>  <SMILES>  (66) 
[NH-]C(=O)c1cc2ccc(C(F)(F)F)cc2n1C(=O)[S-]

>  <Energy>  (66) 
65.96358139288888

>  <Genealogy>  (66) 
[NH-]C(=O)c1cc2ccc(C(F)(F)F)cc2n1C(=O)[S-] (protonated)
[NH-]C(=O)c1cc2ccc(C(F)(F)F)cc2n1C(=O)[S-] (3D coordinates assigned)
[NH-]C(=O)c1cc2ccc(C(F)(F)F)cc2n1C(=O)[S-] (optimized conformer: 65.96358139288888 kcal/mol)

>  <smiles>  (66) 
NC(=O)c1cc2ccc(C(F)(F)F)cc2n1C(=O)S

>  <score_type>  (66) 
oracle

>  <origin>  (66) 
adg

>  <m_score__min__energy>  (66) 
-5.3399999999999999

>  <m_primary>  (66) 
energy

$$$$
66:0
     RDKit          3D

 47 49  0  0  0  0  0  0  0  0999 V2000
  138.9090  158.2540  131.8330 C   0  0  0  0  0  0  0  0  0  0  0  0
  139.1110  157.4340  133.0670 C   0  0  0  0  0  0  0  0  0  0  0  0
  138.1100  157.0990  133.7540 O   0  0  0  0  0  0  0  0  0  0  0  0
  140.4280  157.0330  133.4780 N   0  0  0  0  0  0  0  0  0  0  0  0
  141.4500  157.8370  133.8870 C   0  0  0  0  0  0  0  0  0  0  0  0
  141.3670  159.2950  134.1190 C   0  0  0  0  0  0  0  0  0  0  0  0
  141.4070  160.2170  133.0330 N   0  0  0  0  0  0  0  0  0  0  0  0
  141.2250  159.7310  135.2930 O   0  0  0  0  0  0  0  0  0  0  0  0
  142.5970  157.0830  134.1290 C   0  0  0  0  0  0  0  0  0  0  0  0
  142.2440  155.7820  133.8520 C   0  0  0  0  0  0  0  0  0  0  0  0
  143.0010  154.6170  133.9130 C   0  0  0  0  0  0  0  0  0  0  0  0
  142.3830  153.4110  133.5430 C   0  0  0  0  0  0  0  0  0  0  0  0
  141.0340  153.3910  133.1030 C   0  0  0  0  0  0  0  0  0  0  0  0
  140.4060  152.1450  132.7450 N   0  0  0  0  0  0  0  0  0  0  0  0
  141.0840  151.0310  133.4270 C   0  0  0  0  0  0  0  0  0  0  0  0
  141.6540  150.0070  132.4290 C   0  0  0  0  0  0  0  0  0  0  0  0
  140.9380  148.6470  132.4490 C   0  0  0  0  0  0  0  0  0  0  0  0
  139.9740  148.5260  131.3520 N   0  0  0  0  0  0  0  0  0  0  0  0
  139.9420  147.4320  130.3970 C   0  0  0  0  0  0  0  0  0  0  0  0
  138.7400  147.7100  129.4760 C   0  0  0  0  0  0  0  0  0  0  0  0
  138.2490  149.1330  129.7840 C   0  0  0  0  0  0  0  0  0  0  0  0
  139.0160  149.5020  130.9890 C   0  0  0  0  0  0  0  0  0  0  0  0
  138.8450  150.5760  131.6240 O   0  0  0  0  0  0  0  0  0  0  0  0
  140.2960  154.5970  133.0640 C   0  0  0  0  0  0  0  0  0  0  0  0
  140.9300  155.7790  133.4570 C   0  0  0  0  0  0  0  0  0  0  0  0
  138.6548  159.2861  132.1161 H   0  0  0  0  0  0  0  0  0  0  0  0
  139.8339  158.2544  131.2375 H   0  0  0  0  0  0  0  0  0  0  0  0
  138.0897  157.8247  131.2375 H   0  0  0  0  0  0  0  0  0  0  0  0
  142.0490  160.0650  132.2240 H   0  0  0  0  0  0  0  0  0  0  0  0
  143.5766  157.4500  134.4692 H   0  0  0  0  0  0  0  0  0  0  0  0
  144.0508  154.6392  134.2407 H   0  0  0  0  0  0  0  0  0  0  0  0
  142.9516  152.4708  133.5950 H   0  0  0  0  0  0  0  0  0  0  0  0
  139.3960  152.1660  133.0170 H   0  0  0  0  0  0  0  0  0  0  0  0
  140.4600  152.0220  131.7080 H   0  0  0  0  0  0  0  0  0  0  0  0
  141.9090  151.4343  134.0325 H   0  0  0  0  0  0  0  0  0  0  0  0
  140.3436  150.5164  134.0571 H   0  0  0  0  0  0  0  0  0  0  0  0
  141.5691  150.4274  131.4161 H   0  0  0  0  0  0  0  0  0  0  0  0
  142.6969  149.8213  132.7253 H   0  0  0  0  0  0  0  0  0  0  0  0
  141.6879  147.8479  132.3544 H   0  0  0  0  0  0  0  0  0  0  0  0
  140.3894  148.5622  133.3986 H   0  0  0  0  0  0  0  0  0  0  0  0
  140.8737  147.4068  129.8128 H   0  0  0  0  0  0  0  0  0  0  0  0
  139.8476  146.4589  130.9011 H   0  0  0  0  0  0  0  0  0  0  0  0
  139.0482  147.6377  128.4225 H   0  0  0  0  0  0  0  0  0  0  0  0
  137.9393  146.9756  129.6478 H   0  0  0  0  0  0  0  0  0  0  0  0
  138.4713  149.8158  128.9507 H   0  0  0  0  0  0  0  0  0  0  0  0
  137.1605  149.1908  129.9316 H   0  0  0  0  0  0  0  0  0  0  0  0
  139.2473  154.6045  132.7320 H   0  0  0  0  0  0  0  0  0  0  0  0
  1  2  1  0
  2  3  2  0
  2  4  1  0
  4  5  1  0
  5  6  1  0
  6  7  1  0
  6  8  2  0
  5  9  2  0
  9 10  1  0
 10 11  2  0
 11 12  1  0
 12 13  2  0
 13 14  1  0
 14 15  1  0
 15 16  1  0
 16 17  1  0
 17 18  1  0
 18 19  1  0
 19 20  1  0
 20 21  1  0
 21 22  1  0
 22 23  2  0
 13 24  1  0
 24 25  2  0
 25  4  1  0
 25 10  1  0
 22 18  1  0
  1 26  1  0
  1 27  1  0
  1 28  1  0
  7 29  1  0
  9 30  1  0
 11 31  1  0
 12 32  1  0
 14 33  1  0
 14 34  1  0
 15 35  1  0
 15 36  1  0
 16 37  1  0
 16 38  1  0
 17 39  1  0
 17 40  1  0
 19 41  1  0
 19 42  1  0
 20 43  1  0
 20 44  1  0
 21 45  1  0
 21 46  1  0
 24 47  1  0
M  CHG  2   7  -1  14   1
M  END
>  <UniqueID>  (67) 
67

>  <SMILES>  (67) 
CC(=O)n1c(C([NH-])=O)cc2ccc([NH2+]CCCN3CCCC3=O)cc21

>  <Energy>  (67) 
88.46551044523314

>  <Genealogy>  (67) 
CC(=O)n1c(C([NH-])=O)cc2ccc([NH2+]CCCN3CCCC3=O)cc21 (protonated)
CC(=O)n1c(C([NH-])=O)cc2ccc([NH2+]CCCN3CCCC3=O)cc21 (3D coordinates assigned)
CC(=O)n1c(C([NH-])=O)cc2ccc([NH2+]CCCN3CCCC3=O)cc21 (nonaromatic ring conformer: 88.46551044523314 kcal/mol)

>  <smiles>  (67) 
CC(=O)n1c(C(N)=O)cc2ccc(NCCCN3CCCC3=O)cc21

>  <score_type>  (67) 
oracle

>  <origin>  (67) 
adg

>  <m_score__min__energy>  (67) 
-8.0099999999999998

>  <m_primary>  (67) 
energy

$$$$
67:0
     RDKit          3D

 43 44  0  0  0  0  0  0  0  0999 V2000
  141.3290  159.5530  134.7110 N   0  0  0  0  0  0  0  0  0  0  0  0
  142.1840  160.4630  134.0170 C   0  0  0  0  0  0  0  0  0  0  0  0
  141.7140  161.5610  133.6160 O   0  0  0  0  0  0  0  0  0  0  0  0
  143.5960  160.1150  133.7420 C   0  0  0  0  0  0  0  0  0  0  0  0
  144.6410  161.0380  133.7440 C   0  0  0  0  0  0  0  0  0  0  0  0
  145.7810  160.2990  133.5250 C   0  0  0  0  0  0  0  0  0  0  0  0
  147.1040  160.7130  133.3980 C   0  0  0  0  0  0  0  0  0  0  0  0
  148.0760  159.7350  133.1250 C   0  0  0  0  0  0  0  0  0  0  0  0
  147.7110  158.3730  132.9870 C   0  0  0  0  0  0  0  0  0  0  0  0
  148.7580  157.3480  132.6570 C   0  0  0  0  0  0  0  0  0  0  0  0
  148.1470  156.1820  132.2340 F   0  0  0  0  0  0  0  0  0  0  0  0
  149.5840  157.8220  131.6540 F   0  0  0  0  0  0  0  0  0  0  0  0
  146.3570  157.9930  133.1170 C   0  0  0  0  0  0  0  0  0  0  0  0
  145.4110  158.9850  133.4020 C   0  0  0  0  0  0  0  0  0  0  0  0
  144.0730  158.8560  133.5320 N   0  0  0  0  0  0  0  0  0  0  0  0
  143.3140  157.6470  133.3650 C   0  0  0  0  0  0  0  0  0  0  0  0
  143.2330  157.1100  132.2260 O   0  0  0  0  0  0  0  0  0  0  0  0
  142.6880  157.0570  134.4670 O   0  0  0  0  0  0  0  0  0  0  0  0
  141.4610  156.3400  134.3640 C   0  0  0  0  0  0  0  0  0  0  0  0
  140.3630  157.2260  134.5620 O   0  0  0  0  0  0  0  0  0  0  0  0
  139.4390  157.5190  133.5560 C   0  0  0  0  0  0  0  0  0  0  0  0
  138.7760  156.5950  133.0090 O   0  0  0  0  0  0  0  0  0  0  0  0
  139.2700  158.8480  133.1580 O   0  0  0  0  0  0  0  0  0  0  0  0
  139.9240  159.4170  132.0240 C   0  0  0  0  0  0  0  0  0  0  0  0
  139.0170  159.4000  130.7860 C   0  0  0  0  0  0  0  0  0  0  0  0
  137.5610  159.7510  131.1120 C   0  0  0  0  0  0  0  0  0  0  0  0
  136.8630  158.6300  131.5840 O   0  0  0  0  0  0  0  0  0  0  0  0
  141.6940  158.6610  135.1100 H   0  0  0  0  0  0  0  0  0  0  0  0
  140.3240  159.7930  134.8660 H   0  0  0  0  0  0  0  0  0  0  0  0
  144.5694  162.1259  133.8897 H   0  0  0  0  0  0  0  0  0  0  0  0
  147.3801  161.7721  133.5078 H   0  0  0  0  0  0  0  0  0  0  0  0
  149.1303  160.0300  133.0175 H   0  0  0  0  0  0  0  0  0  0  0  0
  149.3585  157.1464  133.5563 H   0  0  0  0  0  0  0  0  0  0  0  0
  146.0529  156.9427  132.9972 H   0  0  0  0  0  0  0  0  0  0  0  0
  141.3871  155.8853  133.3651 H   0  0  0  0  0  0  0  0  0  0  0  0
  141.4353  155.5542  135.1333 H   0  0  0  0  0  0  0  0  0  0  0  0
  140.1968  160.4577  132.2533 H   0  0  0  0  0  0  0  0  0  0  0  0
  140.8197  158.8174  131.8046 H   0  0  0  0  0  0  0  0  0  0  0  0
  139.4006  160.1311  130.0591 H   0  0  0  0  0  0  0  0  0  0  0  0
  139.0286  158.3774  130.3808 H   0  0  0  0  0  0  0  0  0  0  0  0
  137.5449  160.5349  131.8836 H   0  0  0  0  0  0  0  0  0  0  0  0
  137.0729  160.1033  130.1913 H   0  0  0  0  0  0  0  0  0  0  0  0
  137.4990  158.1160  132.1460 H   0  0  0  0  0  0  0  0  0  0  0  0
  1  2  1  0
  2  3  2  0
  2  4  1  0
  4  5  2  0
  5  6  1  0
  6  7  2  0
  7  8  1  0
  8  9  2  0
  9 10  1  0
 10 11  1  0
 10 12  1  0
  9 13  1  0
 13 14  2  0
 14 15  1  0
 15 16  1  0
 16 17  2  0
 16 18  1  0
 18 19  1  0
 19 20  1  0
 20 21  1  0
 21 22  2  0
 21 23  1  0
 23 24  1  0
 24 25  1  0
 25 26  1  0
 26 27  1  0
 15  4  1  0
 14  6  1  0
  1 28  1  0
  1 29  1  0
  5 30  1  0
  7 31  1  0
  8 32  1  0
 10 33  1  0
 13 34  1  0
 19 35  1  0
 19 36  1  0
 24 37  1  0
 24 38  1  0
 25 39  1  0
 25 40  1  0
 26 41  1  0
 26 42  1  0
 27 43  1  0
M  END
>  <UniqueID>  (68) 
68

>  <SMILES>  (68) 
NC(=O)c1cc2ccc(C(F)F)cc2n1C(=O)OCOC(=O)OCCCO

>  <Energy>  (68) 
69.9365134817533

>  <Genealogy>  (68) 
NC(=O)c1cc2ccc(C(F)F)cc2n1C(=O)OCOC(=O)OCCCO (3D coordinates assigned)
NC(=O)c1cc2ccc(C(F)F)cc2n1C(=O)OCOC(=O)OCCCO (optimized conformer: 69.9365134817533 kcal/mol)

>  <smiles>  (68) 
NC(=O)c1cc2ccc(C(F)F)cc2n1C(=O)OCOC(=O)OCCCO

>  <score_type>  (68) 
oracle

>  <origin>  (68) 
adg

>  <m_score__min__energy>  (68) 
-5.2999999999999998

>  <m_primary>  (68) 
energy

$$$$
68:0
     RDKit          3D

 44 46  0  0  0  0  0  0  0  0999 V2000
  138.9400  156.0070  133.1960 N   0  0  0  0  0  0  0  0  0  0  0  0
  139.2800  157.3650  133.4800 C   0  0  0  0  0  0  0  0  0  0  0  0
  138.3600  158.2050  133.6660 O   0  0  0  0  0  0  0  0  0  0  0  0
  140.6870  157.8140  133.4970 C   0  0  0  0  0  0  0  0  0  0  0  0
  141.0650  159.1510  133.4300 C   0  0  0  0  0  0  0  0  0  0  0  0
  142.4410  159.1390  133.4050 C   0  0  0  0  0  0  0  0  0  0  0  0
  143.3430  160.1960  133.3620 C   0  0  0  0  0  0  0  0  0  0  0  0
  144.7140  159.8950  133.3900 C   0  0  0  0  0  0  0  0  0  0  0  0
  145.1590  158.5500  133.4650 C   0  0  0  0  0  0  0  0  0  0  0  0
  146.5680  158.2520  133.5210 N   0  0  0  0  0  0  0  0  0  0  0  0
  147.5740  159.3050  133.3500 C   0  0  0  0  0  0  0  0  0  0  0  0
  148.5980  158.9050  132.2680 C   0  0  0  0  0  0  0  0  0  0  0  0
  148.7700  157.4460  132.1190 N   0  0  0  0  0  0  0  0  0  0  0  0
  148.4950  156.7140  133.3630 C   0  0  0  0  0  0  0  0  0  0  0  0
  147.0220  156.8780  133.7670 C   0  0  0  0  0  0  0  0  0  0  0  0
  144.2100  157.5040  133.5200 C   0  0  0  0  0  0  0  0  0  0  0  0
  142.8500  157.8310  133.4670 C   0  0  0  0  0  0  0  0  0  0  0  0
  141.7820  157.0040  133.5280 N   0  0  0  0  0  0  0  0  0  0  0  0
  141.8110  155.5780  133.7050 C   0  0  0  0  0  0  0  0  0  0  0  0
  141.0180  155.0300  134.5180 O   0  0  0  0  0  0  0  0  0  0  0  0
  142.7300  154.8060  132.9850 O   0  0  0  0  0  0  0  0  0  0  0  0
  142.9110  153.4040  133.1770 C   0  0  0  0  0  0  0  0  0  0  0  0
  141.7440  152.6160  132.5770 C   0  0  0  0  0  0  0  0  0  0  0  0
  140.5620  153.3700  132.6050 O   0  0  0  0  0  0  0  0  0  0  0  0
  139.6620  155.3300  132.8670 H   0  0  0  0  0  0  0  0  0  0  0  0
  137.9440  155.6980  133.2320 H   0  0  0  0  0  0  0  0  0  0  0  0
  140.4048  160.0305  133.4028 H   0  0  0  0  0  0  0  0  0  0  0  0
  142.9929  161.2374  133.3076 H   0  0  0  0  0  0  0  0  0  0  0  0
  145.4510  160.7107  133.3534 H   0  0  0  0  0  0  0  0  0  0  0  0
  147.0742  160.2372  133.0481 H   0  0  0  0  0  0  0  0  0  0  0  0
  148.1029  159.4492  134.3037 H   0  0  0  0  0  0  0  0  0  0  0  0
  148.2616  159.3146  131.3041 H   0  0  0  0  0  0  0  0  0  0  0  0
  149.5707  159.3113  132.5823 H   0  0  0  0  0  0  0  0  0  0  0  0
  148.1110  157.1020  131.3800 H   0  0  0  0  0  0  0  0  0  0  0  0
  148.7123  155.6465  133.2109 H   0  0  0  0  0  0  0  0  0  0  0  0
  149.1315  157.1193  134.1634 H   0  0  0  0  0  0  0  0  0  0  0  0
  146.4061  156.1829  133.1775 H   0  0  0  0  0  0  0  0  0  0  0  0
  146.9225  156.6588  134.8403 H   0  0  0  0  0  0  0  0  0  0  0  0
  144.5332  156.4558  133.6027 H   0  0  0  0  0  0  0  0  0  0  0  0
  143.8457  153.0912  132.6887 H   0  0  0  0  0  0  0  0  0  0  0  0
  142.9550  153.1997  134.2570 H   0  0  0  0  0  0  0  0  0  0  0  0
  141.9820  152.3586  131.5344 H   0  0  0  0  0  0  0  0  0  0  0  0
  141.5927  151.7045  133.1738 H   0  0  0  0  0  0  0  0  0  0  0  0
  140.8220  154.3110  132.4310 H   0  0  0  0  0  0  0  0  0  0  0  0
  1  2  1  0
  2  3  2  0
  2  4  1  0
  4  5  2  0
  5  6  1  0
  6  7  2  0
  7  8  1  0
  8  9  2  0
  9 10  1  0
 10 11  1  0
 11 12  1  0
 12 13  1  0
 13 14  1  0
 14 15  1  0
  9 16  1  0
 16 17  2  0
 17 18  1  0
 18 19  1  0
 19 20  2  0
 19 21  1  0
 21 22  1  0
 22 23  1  0
 23 24  1  0
 18  4  1  0
 17  6  1  0
 15 10  1  0
  1 25  1  0
  1 26  1  0
  5 27  1  0
  7 28  1  0
  8 29  1  0
 11 30  1  0
 11 31  1  0
 12 32  1  0
 12 33  1  0
 13 34  1  0
 14 35  1  0
 14 36  1  0
 15 37  1  0
 15 38  1  0
 16 39  1  0
 22 40  1  0
 22 41  1  0
 23 42  1  0
 23 43  1  0
 24 44  1  0
M  END
>  <UniqueID>  (69) 
69

>  <SMILES>  (69) 
NC(=O)c1cc2ccc(N3CCNCC3)cc2n1C(=O)OCCO

>  <Energy>  (69) 
89.45969854575786

>  <Genealogy>  (69) 
NC(=O)c1cc2ccc(N3CCNCC3)cc2n1C(=O)OCCO (3D coordinates assigned)
NC(=O)c1cc2ccc(N3CCNCC3)cc2n1C(=O)OCCO (nonaromatic ring conformer: 89.45969854575786 kcal/mol)

>  <smiles>  (69) 
NC(=O)c1cc2ccc(N3CCNCC3)cc2n1C(=O)OCCO

>  <score_type>  (69) 
oracle

>  <origin>  (69) 
adg

>  <m_score__min__energy>  (69) 
-6.7599999999999998

>  <m_primary>  (69) 
energy

$$$$
69:0
     RDKit          3D

 39 40  0  0  0  0  0  0  0  0999 V2000
  148.8270  153.6800  132.7390 C   0  0  0  0  0  0  0  0  0  0  0  0
  148.4970  154.8380  132.7940 C   0  0  0  0  0  0  0  0  0  0  0  0
  148.1010  156.2200  132.8590 C   0  0  0  0  0  0  0  0  0  0  0  0
  149.0300  157.2360  132.5350 C   0  0  0  0  0  0  0  0  0  0  0  0
  148.6590  158.5900  132.6060 C   0  0  0  0  0  0  0  0  0  0  0  0
  147.3550  158.8890  132.9950 C   0  0  0  0  0  0  0  0  0  0  0  0
  146.7390  160.1070  133.1740 C   0  0  0  0  0  0  0  0  0  0  0  0
  145.4390  159.8090  133.5820 C   0  0  0  0  0  0  0  0  0  0  0  0
  144.4030  160.8350  133.8210 C   0  0  0  0  0  0  0  0  0  0  0  0
  143.0670  160.6520  133.3580 N   0  0  0  0  0  0  0  0  0  0  0  0
  144.7090  161.9060  134.4110 O   0  0  0  0  0  0  0  0  0  0  0  0
  145.2610  158.4600  133.6550 N   0  0  0  0  0  0  0  0  0  0  0  0
  144.0990  157.7460  134.1000 C   0  0  0  0  0  0  0  0  0  0  0  0
  144.2360  156.7510  134.8600 O   0  0  0  0  0  0  0  0  0  0  0  0
  142.7930  158.1680  133.6670 N   0  0  0  0  0  0  0  0  0  0  0  0
  141.5420  157.4110  133.8750 C   0  0  0  0  0  0  0  0  0  0  0  0
  141.2090  157.3740  135.3800 C   0  0  0  0  0  0  0  0  0  0  0  0
  141.6830  155.9720  133.3340 C   0  0  0  0  0  0  0  0  0  0  0  0
  140.3750  158.1230  133.1370 C   0  0  0  0  0  0  0  0  0  0  0  0
  140.7810  159.4280  132.6130 N   0  0  0  0  0  0  0  0  0  0  0  0
  146.4410  157.9110  133.2940 C   0  0  0  0  0  0  0  0  0  0  0  0
  146.7900  156.5560  133.2520 C   0  0  0  0  0  0  0  0  0  0  0  0
  149.1282  152.6232  132.6888 H   0  0  0  0  0  0  0  0  0  0  0  0
  150.0500  156.9647  132.2253 H   0  0  0  0  0  0  0  0  0  0  0  0
  149.3755  159.3882  132.3622 H   0  0  0  0  0  0  0  0  0  0  0  0
  147.1790  161.1043  133.0265 H   0  0  0  0  0  0  0  0  0  0  0  0
  142.8730  160.1330  132.4730 H   0  0  0  0  0  0  0  0  0  0  0  0
  142.7500  159.0950  133.1860 H   0  0  0  0  0  0  0  0  0  0  0  0
  142.1359  157.4770  135.9633 H   0  0  0  0  0  0  0  0  0  0  0  0
  140.5276  158.2019  135.6252 H   0  0  0  0  0  0  0  0  0  0  0  0
  140.7259  156.4166  135.6252 H   0  0  0  0  0  0  0  0  0  0  0  0
  141.7519  155.2685  134.1768 H   0  0  0  0  0  0  0  0  0  0  0  0
  140.8049  155.7235  132.7198 H   0  0  0  0  0  0  0  0  0  0  0  0
  142.5926  155.8987  132.7198 H   0  0  0  0  0  0  0  0  0  0  0  0
  140.0438  157.4904  132.3003 H   0  0  0  0  0  0  0  0  0  0  0  0
  139.5598  158.2819  133.8582 H   0  0  0  0  0  0  0  0  0  0  0  0
  141.7100  159.3310  132.1430 H   0  0  0  0  0  0  0  0  0  0  0  0
  140.9350  160.0660  133.4280 H   0  0  0  0  0  0  0  0  0  0  0  0
  146.0617  155.7758  133.5182 H   0  0  0  0  0  0  0  0  0  0  0  0
  1  2  3  0
  2  3  1  0
  3  4  2  0
  4  5  1  0
  5  6  2  0
  6  7  1  0
  7  8  2  0
  8  9  1  0
  9 10  1  0
  9 11  2  0
  8 12  1  0
 12 13  1  0
 13 14  2  0
 13 15  1  0
 15 16  1  0
 16 17  1  0
 16 18  1  0
 16 19  1  0
 19 20  1  0
 12 21  1  0
 21 22  2  0
 22  3  1  0
 21  6  1  0
  1 23  1  0
  4 24  1  0
  5 25  1  0
  7 26  1  0
 10 27  1  0
 15 28  1  0
 17 29  1  0
 17 30  1  0
 17 31  1  0
 18 32  1  0
 18 33  1  0
 18 34  1  0
 19 35  1  0
 19 36  1  0
 20 37  1  0
 20 38  1  0
 22 39  1  0
M  CHG  1  10  -1
M  END
>  <UniqueID>  (70) 
70

>  <SMILES>  (70) 
C#Cc1ccc2cc(C([NH-])=O)n(C(=O)NC(C)(C)CN)c2c1

>  <Energy>  (70) 
72.15234024109814

>  <Genealogy>  (70) 
C#Cc1ccc2cc(C([NH-])=O)n(C(=O)NC(C)(C)CN)c2c1 (protonated)
C#Cc1ccc2cc(C([NH-])=O)n(C(=O)NC(C)(C)CN)c2c1 (3D coordinates assigned)
C#Cc1ccc2cc(C([NH-])=O)n(C(=O)NC(C)(C)CN)c2c1 (optimized conformer: 72.15234024109814 kcal/mol)

>  <smiles>  (70) 
C#Cc1ccc2cc(C(N)=O)n(C(=O)NC(C)(C)CN)c2c1

>  <score_type>  (70) 
oracle

>  <origin>  (70) 
adg

>  <m_score__min__energy>  (70) 
-8.2799999999999994

>  <m_primary>  (70) 
energy

$$$$
70:0
     RDKit          3D

 41 42  0  0  0  0  0  0  0  0999 V2000
  141.8270  156.1500  134.5120 C   0  0  0  0  0  0  0  0  0  0  0  0
  142.0040  157.5680  134.8520 N   0  0  0  0  0  0  0  0  0  0  0  0
  141.0000  158.2240  135.7010 C   0  0  0  0  0  0  0  0  0  0  0  0
  143.1520  158.3080  134.3600 C   0  0  0  0  0  0  0  0  0  0  0  0
  143.1020  159.7250  134.2240 C   0  0  0  0  0  0  0  0  0  0  0  0
  144.2120  160.4490  133.7580 C   0  0  0  0  0  0  0  0  0  0  0  0
  145.3590  159.7410  133.4210 C   0  0  0  0  0  0  0  0  0  0  0  0
  146.5780  160.1930  132.9700 C   0  0  0  0  0  0  0  0  0  0  0  0
  147.3590  159.0490  132.8070 C   0  0  0  0  0  0  0  0  0  0  0  0
  148.7310  159.0710  132.2560 C   0  0  0  0  0  0  0  0  0  0  0  0
  149.0910  158.2460  131.1520 N   0  0  0  0  0  0  0  0  0  0  0  0
  149.5850  159.8610  132.7400 O   0  0  0  0  0  0  0  0  0  0  0  0
  146.6520  157.9370  133.1520 N   0  0  0  0  0  0  0  0  0  0  0  0
  147.1090  156.5780  133.1940 C   0  0  0  0  0  0  0  0  0  0  0  0
  147.3800  155.9720  132.1220 O   0  0  0  0  0  0  0  0  0  0  0  0
  147.2660  155.9210  134.4590 N   0  0  0  0  0  0  0  0  0  0  0  0
  146.9820  154.5090  134.7360 C   0  0  0  0  0  0  0  0  0  0  0  0
  145.4760  154.2440  134.5470 C   0  0  0  0  0  0  0  0  0  0  0  0
  147.7720  153.6600  133.7310 C   0  0  0  0  0  0  0  0  0  0  0  0
  147.4300  154.1450  136.1350 C   0  0  0  0  0  0  0  0  0  0  0  0
  148.2940  154.8470  136.7250 O   0  0  0  0  0  0  0  0  0  0  0  0
  146.9570  152.9920  136.7510 O   0  0  0  0  0  0  0  0  0  0  0  0
  145.4280  158.3780  133.5230 C   0  0  0  0  0  0  0  0  0  0  0  0
  144.3480  157.6320  134.0060 C   0  0  0  0  0  0  0  0  0  0  0  0
  141.7531  155.5578  135.4360 H   0  0  0  0  0  0  0  0  0  0  0  0
  140.9065  156.0264  133.9227 H   0  0  0  0  0  0  0  0  0  0  0  0
  142.6889  155.8039  133.9227 H   0  0  0  0  0  0  0  0  0  0  0  0
  141.2511  158.0599  136.7593 H   0  0  0  0  0  0  0  0  0  0  0  0
  140.9899  159.3035  135.4896 H   0  0  0  0  0  0  0  0  0  0  0  0
  140.0074  157.7997  135.4896 H   0  0  0  0  0  0  0  0  0  0  0  0
  142.1787  160.2614  134.4883 H   0  0  0  0  0  0  0  0  0  0  0  0
  144.1742  161.5442  133.6627 H   0  0  0  0  0  0  0  0  0  0  0  0
  146.8736  161.2351  132.7787 H   0  0  0  0  0  0  0  0  0  0  0  0
  148.8310  157.2340  131.1290 H   0  0  0  0  0  0  0  0  0  0  0  0
  144.9923  154.1589  135.5313 H   0  0  0  0  0  0  0  0  0  0  0  0
  145.0246  155.0765  133.9874 H   0  0  0  0  0  0  0  0  0  0  0  0
  145.3359  153.3074  133.9874 H   0  0  0  0  0  0  0  0  0  0  0  0
  148.4234  152.9599  134.2746 H   0  0  0  0  0  0  0  0  0  0  0  0
  147.0719  153.0939  133.0990 H   0  0  0  0  0  0  0  0  0  0  0  0
  148.3869  154.3176  133.0990 H   0  0  0  0  0  0  0  0  0  0  0  0
  144.4247  156.5396  134.1096 H   0  0  0  0  0  0  0  0  0  0  0  0
  1  2  1  0
  2  3  1  0
  2  4  1  0
  4  5  2  0
  5  6  1  0
  6  7  2  0
  7  8  1  0
  8  9  2  0
  9 10  1  0
 10 11  1  0
 10 12  2  0
  9 13  1  0
 13 14  1  0
 14 15  2  0
 14 16  1  0
 16 17  1  0
 17 18  1  0
 17 19  1  0
 17 20  1  0
 20 21  2  0
 20 22  1  0
 13 23  1  0
 23 24  2  0
 24  4  1  0
 23  7  1  0
  1 25  1  0
  1 26  1  0
  1 27  1  0
  3 28  1  0
  3 29  1  0
  3 30  1  0
  5 31  1  0
  6 32  1  0
  8 33  1  0
 11 34  1  0
 18 35  1  0
 18 36  1  0
 18 37  1  0
 19 38  1  0
 19 39  1  0
 19 40  1  0
 24 41  1  0
M  CHG  3  11  -1  16  -1  22  -1
M  END
>  <UniqueID>  (71) 
71

>  <SMILES>  (71) 
CN(C)c1ccc2cc(C([NH-])=O)n(C(=O)[N-]C(C)(C)C(=O)[O-])c2c1

>  <Energy>  (71) 
77.62275382533213

>  <Genealogy>  (71) 
CN(C)c1ccc2cc(C([NH-])=O)n(C(=O)[N-]C(C)(C)C(=O)[O-])c2c1 (protonated)
CN(C)c1ccc2cc(C([NH-])=O)n(C(=O)[N-]C(C)(C)C(=O)[O-])c2c1 (3D coordinates assigned)
CN(C)c1ccc2cc(C([NH-])=O)n(C(=O)[N-]C(C)(C)C(=O)[O-])c2c1 (optimized conformer: 77.62275382533213 kcal/mol)

>  <smiles>  (71) 
CN(C)c1ccc2cc(C(N)=O)n(C(=O)NC(C)(C)C(=O)O)c2c1

>  <score_type>  (71) 
oracle

>  <origin>  (71) 
adg

>  <m_score__min__energy>  (71) 
-7.2400000000000002

>  <m_primary>  (71) 
energy

$$$$
71:0
     RDKit          3D

 46 49  0  0  0  0  0  0  0  0999 V2000
  138.7550  156.9620  133.2980 N   0  0  0  0  0  0  0  0  0  0  0  0
  139.5590  157.4670  134.3620 C   0  0  0  0  0  0  0  0  0  0  0  0
  139.0010  157.9350  135.3890 O   0  0  0  0  0  0  0  0  0  0  0  0
  141.0320  157.4540  134.2420 C   0  0  0  0  0  0  0  0  0  0  0  0
  141.8430  156.4340  134.7350 C   0  0  0  0  0  0  0  0  0  0  0  0
  143.1260  156.7860  134.3800 C   0  0  0  0  0  0  0  0  0  0  0  0
  144.3310  156.1390  134.6180 C   0  0  0  0  0  0  0  0  0  0  0  0
  145.5100  156.7400  134.1480 C   0  0  0  0  0  0  0  0  0  0  0  0
  145.4820  157.9880  133.4530 C   0  0  0  0  0  0  0  0  0  0  0  0
  146.7120  158.6030  132.9640 N   0  0  0  0  0  0  0  0  0  0  0  0
  147.8980  157.7560  132.6910 C   0  0  0  0  0  0  0  0  0  0  0  0
  149.0910  158.5690  132.1470 C   0  0  1  0  0  0  0  0  0  0  0  0
  148.8860  158.9650  130.6850 C   0  0  0  0  0  0  0  0  0  0  0  0
  148.2420  160.3260  130.7920 C   0  0  0  0  0  0  0  0  0  0  0  0
  148.1610  160.5480  132.3020 C   0  0  1  0  0  0  0  0  0  0  0  0
  146.8090  160.0810  132.8780 C   0  0  0  0  0  0  0  0  0  0  0  0
  149.1760  159.7660  132.8740 O   0  0  0  0  0  0  0  0  0  0  0  0
  144.2200  158.6080  133.2410 C   0  0  0  0  0  0  0  0  0  0  0  0
  143.0640  157.9730  133.7050 C   0  0  0  0  0  0  0  0  0  0  0  0
  141.7840  158.3930  133.6040 N   0  0  0  0  0  0  0  0  0  0  0  0
  141.3340  159.6240  133.0150 C   0  0  0  0  0  0  0  0  0  0  0  0
  141.8580  160.7120  133.3770 O   0  0  0  0  0  0  0  0  0  0  0  0
  140.2850  159.6490  131.9770 C   0  0  0  0  0  0  0  0  0  0  0  0
  138.9850  159.7560  132.2700 C   0  0  0  0  0  0  0  0  0  0  0  0
  137.9460  159.7640  131.1900 C   0  0  0  0  0  0  0  0  0  0  0  0
  136.9890  158.7670  131.4250 O   0  0  0  0  0  0  0  0  0  0  0  0
  137.9170  157.4870  132.9640 H   0  0  0  0  0  0  0  0  0  0  0  0
  141.5260  155.5385  135.2896 H   0  0  0  0  0  0  0  0  0  0  0  0
  144.3614  155.1821  135.1597 H   0  0  0  0  0  0  0  0  0  0  0  0
  146.4747  156.2397  134.3184 H   0  0  0  0  0  0  0  0  0  0  0  0
  148.2033  157.2642  133.6264 H   0  0  0  0  0  0  0  0  0  0  0  0
  147.6150  157.0219  131.9222 H   0  0  0  0  0  0  0  0  0  0  0  0
  149.9928  157.9458  132.2383 H   0  0  0  0  0  0  0  0  0  0  0  0
  149.8465  159.0224  130.1520 H   0  0  0  0  0  0  0  0  0  0  0  0
  148.2809  158.2411  130.1194 H   0  0  0  0  0  0  0  0  0  0  0  0
  148.8629  161.0965  130.3115 H   0  0  0  0  0  0  0  0  0  0  0  0
  147.2642  160.3844  130.2914 H   0  0  0  0  0  0  0  0  0  0  0  0
  148.2681  161.6203  132.5226 H   0  0  0  0  0  0  0  0  0  0  0  0
  146.6904  160.5023  133.8872 H   0  0  0  0  0  0  0  0  0  0  0  0
  146.0165  160.4306  132.2000 H   0  0  0  0  0  0  0  0  0  0  0  0
  144.1541  159.5740  132.7190 H   0  0  0  0  0  0  0  0  0  0  0  0
  140.5846  159.5768  130.9210 H   0  0  0  0  0  0  0  0  0  0  0  0
  138.6727  159.8396  133.3214 H   0  0  0  0  0  0  0  0  0  0  0  0
  137.4498  160.7456  131.1717 H   0  0  0  0  0  0  0  0  0  0  0  0
  138.4343  159.5692  130.2238 H   0  0  0  0  0  0  0  0  0  0  0  0
  137.4350  158.0700  131.9730 H   0  0  0  0  0  0  0  0  0  0  0  0
  1  2  1  0
  2  3  2  0
  2  4  1  0
  4  5  2  0
  5  6  1  0
  6  7  2  0
  7  8  1  0
  8  9  2  0
  9 10  1  0
 10 11  1  0
 11 12  1  0
 12 13  1  0
 13 14  1  0
 14 15  1  0
 15 16  1  0
 15 17  1  0
  9 18  1  0
 18 19  2  0
 19 20  1  0
 20 21  1  0
 21 22  2  0
 21 23  1  0
 23 24  2  3
 24 25  1  0
 25 26  1  0
 20  4  1  0
 19  6  1  0
 16 10  1  0
 17 12  1  0
  1 27  1  0
  5 28  1  0
  7 29  1  0
  8 30  1  0
 11 31  1  0
 11 32  1  0
 12 33  1  6
 13 34  1  0
 13 35  1  0
 14 36  1  0
 14 37  1  0
 15 38  1  6
 16 39  1  0
 16 40  1  0
 18 41  1  0
 23 42  1  0
 24 43  1  0
 25 44  1  0
 25 45  1  0
 26 46  1  0
M  CHG  1   1  -1
M  END
>  <UniqueID>  (72) 
72

>  <SMILES>  (72) 
[NH-]C(=O)c1cc2ccc(N3C[C@H]4CC[C@@H](C3)O4)cc2n1C(=O)C=CCO

>  <Energy>  (72) 
93.93563195918773

>  <Genealogy>  (72) 
[NH-]C(=O)c1cc2ccc(N3CC4CCC(C3)O4)cc2n1C(=O)C=CCO (protonated)
[NH-]C(=O)c1cc2ccc(N3C[C@H]4CC[C@@H](C3)O4)cc2n1C(=O)C=CCO (chirality)
[NH-]C(=O)c1cc2ccc(N3C[C@H]4CC[C@@H](C3)O4)cc2n1C(=O)C=CCO (3D coordinates assigned)
[NH-]C(=O)c1cc2ccc(N3C[C@H]4CC[C@@H](C3)O4)cc2n1C(=O)C=CCO (nonaromatic ring conformer: 93.93563195918773 kcal/mol)

>  <smiles>  (72) 
NC(=O)c1cc2ccc(N3CC4CCC(C3)O4)cc2n1C(=O)C=CCO

>  <score_type>  (72) 
oracle

>  <origin>  (72) 
adg

>  <m_score__min__energy>  (72) 
-8.3900000000000006

>  <m_primary>  (72) 
energy

$$$$
72:0
     RDKit          3D

 39 40  0  0  0  0  0  0  0  0999 V2000
  149.1140  161.6330  130.3590 C   0  0  0  0  0  0  0  0  0  0  0  0
  148.9530  160.3800  131.1660 C   0  0  0  0  0  0  0  0  0  0  0  0
  150.0110  159.4400  131.2390 C   0  0  0  0  0  0  0  0  0  0  0  0
  149.8540  158.2400  131.9520 C   0  0  0  0  0  0  0  0  0  0  0  0
  148.6310  158.0060  132.5740 C   0  0  0  0  0  0  0  0  0  0  0  0
  148.2010  156.9200  133.3020 C   0  0  0  0  0  0  0  0  0  0  0  0
  146.8890  157.2150  133.6650 C   0  0  0  0  0  0  0  0  0  0  0  0
  146.0730  156.3460  134.5390 C   0  0  0  0  0  0  0  0  0  0  0  0
  144.7060  156.6690  134.7830 N   0  0  0  0  0  0  0  0  0  0  0  0
  146.5600  155.3000  135.0420 O   0  0  0  0  0  0  0  0  0  0  0  0
  146.5190  158.4320  133.1770 N   0  0  0  0  0  0  0  0  0  0  0  0
  145.2290  159.0570  133.2640 C   0  0  0  0  0  0  0  0  0  0  0  0
  144.2720  158.6210  132.5680 O   0  0  0  0  0  0  0  0  0  0  0  0
  145.0330  160.1250  134.1470 O   0  0  0  0  0  0  0  0  0  0  0  0
  143.9450  161.0410  134.0370 C   0  0  0  0  0  0  0  0  0  0  0  0
  142.6340  160.3090  134.1440 C   0  0  0  0  0  0  0  0  0  0  0  0
  141.6070  160.8910  133.8190 O   0  0  0  0  0  0  0  0  0  0  0  0
  142.5770  158.9430  134.6270 N   0  0  0  0  0  0  0  0  0  0  0  0
  141.7070  158.1290  133.7630 C   0  0  0  0  0  0  0  0  0  0  0  0
  142.1000  158.9190  136.0180 C   0  0  0  0  0  0  0  0  0  0  0  0
  147.5970  158.9060  132.5140 C   0  0  0  0  0  0  0  0  0  0  0  0
  147.7200  160.1010  131.7960 C   0  0  0  0  0  0  0  0  0  0  0  0
  149.2245  162.4932  131.0356 H   0  0  0  0  0  0  0  0  0  0  0  0
  150.0086  161.5481  129.7246 H   0  0  0  0  0  0  0  0  0  0  0  0
  148.2270  161.7771  129.7246 H   0  0  0  0  0  0  0  0  0  0  0  0
  150.9642  159.6521  130.7325 H   0  0  0  0  0  0  0  0  0  0  0  0
  150.6723  157.5078  132.0168 H   0  0  0  0  0  0  0  0  0  0  0  0
  148.7721  156.0120  133.5455 H   0  0  0  0  0  0  0  0  0  0  0  0
  144.3050  157.5800  134.4690 H   0  0  0  0  0  0  0  0  0  0  0  0
  144.0129  161.7841  134.8452 H   0  0  0  0  0  0  0  0  0  0  0  0
  143.9965  161.5425  133.0593 H   0  0  0  0  0  0  0  0  0  0  0  0
  143.5350  158.5180  134.6080 H   0  0  0  0  0  0  0  0  0  0  0  0
  141.0457  157.5102  134.3873 H   0  0  0  0  0  0  0  0  0  0  0  0
  141.0989  158.7900  133.1280 H   0  0  0  0  0  0  0  0  0  0  0  0
  142.3262  157.4783  133.1280 H   0  0  0  0  0  0  0  0  0  0  0  0
  142.9607  158.9623  136.7016 H   0  0  0  0  0  0  0  0  0  0  0  0
  141.4462  159.7854  136.1964 H   0  0  0  0  0  0  0  0  0  0  0  0
  141.5364  157.9914  136.1964 H   0  0  0  0  0  0  0  0  0  0  0  0
  146.8779  160.8050  131.7241 H   0  0  0  0  0  0  0  0  0  0  0  0
  1  2  1  0
  2  3  2  0
  3  4  1  0
  4  5  2  0
  5  6  1  0
  6  7  2  0
  7  8  1  0
  8  9  1  0
  8 10  2  0
  7 11  1  0
 11 12  1  0
 12 13  2  0
 12 14  1  0
 14 15  1  0
 15 16  1  0
 16 17  2  0
 16 18  1  0
 18 19  1  0
 18 20  1  0
 11 21  1  0
 21 22  2  0
 22  2  1  0
 21  5  1  0
  1 23  1  0
  1 24  1  0
  1 25  1  0
  3 26  1  0
  4 27  1  0
  6 28  1  0
  9 29  1  0
 15 30  1  0
 15 31  1  0
 18 32  1  0
 19 33  1  0
 19 34  1  0
 19 35  1  0
 20 36  1  0
 20 37  1  0
 20 38  1  0
 22 39  1  0
M  CHG  2   9  -1  18   1
M  END
>  <UniqueID>  (73) 
73

>  <SMILES>  (73) 
Cc1ccc2cc(C([NH-])=O)n(C(=O)OCC(=O)[NH+](C)C)c2c1

>  <Energy>  (73) 
73.56768102184334

>  <Genealogy>  (73) 
Cc1ccc2cc(C([NH-])=O)n(C(=O)OCC(=O)[NH+](C)C)c2c1 (protonated)
Cc1ccc2cc(C([NH-])=O)n(C(=O)OCC(=O)[NH+](C)C)c2c1 (3D coordinates assigned)
Cc1ccc2cc(C([NH-])=O)n(C(=O)OCC(=O)[NH+](C)C)c2c1 (optimized conformer: 73.56768102184334 kcal/mol)

>  <smiles>  (73) 
Cc1ccc2cc(C(N)=O)n(C(=O)OCC(=O)N(C)C)c2c1

>  <score_type>  (73) 
oracle

>  <origin>  (73) 
adg

>  <m_score__min__energy>  (73) 
-5.0499999999999998

>  <m_primary>  (73) 
energy

$$$$
73:0
     RDKit          3D

 38 39  0  0  0  0  0  0  0  0999 V2000
  149.6060  150.9990  135.5330 C   0  0  0  0  0  0  0  0  0  0  0  0
  149.8930  150.7150  134.1700 O   0  0  0  0  0  0  0  0  0  0  0  0
  149.6940  151.6500  133.1480 C   0  0  0  0  0  0  0  0  0  0  0  0
  150.6740  152.2310  132.6080 O   0  0  0  0  0  0  0  0  0  0  0  0
  148.3040  151.9940  132.7290 C   0  0  0  0  0  0  0  0  0  0  0  0
  148.1000  153.4410  132.8340 C   0  0  0  0  0  0  0  0  0  0  0  0
  147.9360  154.6320  132.9240 C   0  0  0  0  0  0  0  0  0  0  0  0
  147.7340  156.0520  133.0310 C   0  0  0  0  0  0  0  0  0  0  0  0
  148.8330  156.9320  132.8980 C   0  0  0  0  0  0  0  0  0  0  0  0
  148.6450  158.3220  132.9850 C   0  0  0  0  0  0  0  0  0  0  0  0
  147.3540  158.7930  133.2130 C   0  0  0  0  0  0  0  0  0  0  0  0
  146.8870  160.0840  133.3150 C   0  0  0  0  0  0  0  0  0  0  0  0
  145.5160  159.9650  133.5330 C   0  0  0  0  0  0  0  0  0  0  0  0
  144.6320  161.1200  133.7890 C   0  0  0  0  0  0  0  0  0  0  0  0
  143.2140  160.9850  133.7340 N   0  0  0  0  0  0  0  0  0  0  0  0
  145.1330  162.2310  134.1080 O   0  0  0  0  0  0  0  0  0  0  0  0
  145.1470  158.6520  133.5560 N   0  0  0  0  0  0  0  0  0  0  0  0
  143.8240  158.1090  133.6730 C   0  0  0  0  0  0  0  0  0  0  0  0
  143.2760  157.5640  132.6760 O   0  0  0  0  0  0  0  0  0  0  0  0
  143.1570  158.1670  134.9030 O   0  0  0  0  0  0  0  0  0  0  0  0
  141.7470  158.0090  135.0370 C   0  0  0  0  0  0  0  0  0  0  0  0
  141.1960  159.0350  135.9750 C   0  0  0  0  0  0  0  0  0  0  0  0
  141.0010  160.2150  135.5830 O   0  0  0  0  0  0  0  0  0  0  0  0
  140.9320  158.6950  137.2950 O   0  0  0  0  0  0  0  0  0  0  0  0
  146.2850  157.9470  133.3610 C   0  0  0  0  0  0  0  0  0  0  0  0
  146.4400  156.5600  133.2600 C   0  0  0  0  0  0  0  0  0  0  0  0
  150.2388  150.3728  136.1791 H   0  0  0  0  0  0  0  0  0  0  0  0
  149.8103  152.0604  135.7373 H   0  0  0  0  0  0  0  0  0  0  0  0
  148.5468  150.7835  135.7373 H   0  0  0  0  0  0  0  0  0  0  0  0
  148.1473  151.6774  131.6873 H   0  0  0  0  0  0  0  0  0  0  0  0
  147.5877  151.4768  133.3843 H   0  0  0  0  0  0  0  0  0  0  0  0
  149.8407  156.5262  132.7254 H   0  0  0  0  0  0  0  0  0  0  0  0
  149.4911  159.0165  132.8764 H   0  0  0  0  0  0  0  0  0  0  0  0
  147.4721  161.0125  133.2403 H   0  0  0  0  0  0  0  0  0  0  0  0
  142.7260  160.2160  134.2440 H   0  0  0  0  0  0  0  0  0  0  0  0
  141.2734  158.1272  134.0512 H   0  0  0  0  0  0  0  0  0  0  0  0
  141.5361  157.0071  135.4390 H   0  0  0  0  0  0  0  0  0  0  0  0
  145.5763  155.8856  133.3566 H   0  0  0  0  0  0  0  0  0  0  0  0
  1  2  1  0
  2  3  1  0
  3  4  2  0
  3  5  1  0
  5  6  1  0
  6  7  3  0
  7  8  1  0
  8  9  2  0
  9 10  1  0
 10 11  2  0
 11 12  1  0
 12 13  2  0
 13 14  1  0
 14 15  1  0
 14 16  2  0
 13 17  1  0
 17 18  1  0
 18 19  2  0
 18 20  1  0
 20 21  1  0
 21 22  1  0
 22 23  2  0
 22 24  1  0
 17 25  1  0
 25 26  2  0
 26  8  1  0
 25 11  1  0
  1 27  1  0
  1 28  1  0
  1 29  1  0
  5 30  1  0
  5 31  1  0
  9 32  1  0
 10 33  1  0
 12 34  1  0
 15 35  1  0
 21 36  1  0
 21 37  1  0
 26 38  1  0
M  CHG  2  15  -1  24  -1
M  END
>  <UniqueID>  (74) 
74

>  <SMILES>  (74) 
COC(=O)CC#Cc1ccc2cc(C([NH-])=O)n(C(=O)OCC(=O)[O-])c2c1

>  <Energy>  (74) 
66.83847198223745

>  <Genealogy>  (74) 
COC(=O)CC#Cc1ccc2cc(C([NH-])=O)n(C(=O)OCC(=O)[O-])c2c1 (protonated)
COC(=O)CC#Cc1ccc2cc(C([NH-])=O)n(C(=O)OCC(=O)[O-])c2c1 (3D coordinates assigned)
COC(=O)CC#Cc1ccc2cc(C([NH-])=O)n(C(=O)OCC(=O)[O-])c2c1 (optimized conformer: 66.83847198223745 kcal/mol)

>  <smiles>  (74) 
COC(=O)CC#Cc1ccc2cc(C(N)=O)n(C(=O)OCC(=O)O)c2c1

>  <score_type>  (74) 
oracle

>  <origin>  (74) 
adg

>  <m_score__min__energy>  (74) 
-6.8899999999999997

>  <m_primary>  (74) 
energy

$$$$
74:0
     RDKit          3D

 40 41  0  0  0  0  0  0  0  0999 V2000
  148.1180  159.7380  133.0930 C   0  0  0  0  0  0  0  0  0  0  0  0
  147.0330  158.7590  132.9880 N   0  0  0  0  0  0  0  0  0  0  0  0
  147.3650  157.3600  132.6840 C   0  0  0  0  0  0  0  0  0  0  0  0
  147.1870  156.4970  133.9070 C   0  0  0  0  0  0  0  0  0  0  0  0
  147.9260  156.6740  134.8670 O   0  0  0  0  0  0  0  0  0  0  0  0
  146.1640  155.4680  133.9530 N   0  0  0  0  0  0  0  0  0  0  0  0
  146.5130  154.4340  134.9410 C   0  0  0  0  0  0  0  0  0  0  0  0
  145.9890  154.8740  132.6190 C   0  0  0  0  0  0  0  0  0  0  0  0
  145.6860  159.1270  133.3550 C   0  0  0  0  0  0  0  0  0  0  0  0
  145.3500  160.4890  133.5710 C   0  0  0  0  0  0  0  0  0  0  0  0
  144.0570  160.8570  133.9790 C   0  0  0  0  0  0  0  0  0  0  0  0
  143.1180  159.8470  134.1590 C   0  0  0  0  0  0  0  0  0  0  0  0
  141.8120  159.9210  134.5820 C   0  0  0  0  0  0  0  0  0  0  0  0
  141.3540  158.6050  134.6000 C   0  0  0  0  0  0  0  0  0  0  0  0
  139.9600  158.2340  134.9240 C   0  0  0  0  0  0  0  0  0  0  0  0
  139.5530  158.1340  136.2870 N   0  0  0  0  0  0  0  0  0  0  0  0
  139.1140  158.0400  134.0120 O   0  0  0  0  0  0  0  0  0  0  0  0
  142.3420  157.7500  134.2060 N   0  0  0  0  0  0  0  0  0  0  0  0
  142.2990  156.3150  134.1560 C   0  0  0  0  0  0  0  0  0  0  0  0
  141.2340  155.7200  133.8440 O   0  0  0  0  0  0  0  0  0  0  0  0
  143.4270  155.5680  134.4740 O   0  0  0  0  0  0  0  0  0  0  0  0
  143.4140  158.5280  133.9370 C   0  0  0  0  0  0  0  0  0  0  0  0
  144.6970  158.1310  133.5410 C   0  0  0  0  0  0  0  0  0  0  0  0
  148.3343  159.9332  134.1537 H   0  0  0  0  0  0  0  0  0  0  0  0
  149.0188  159.3411  132.6021 H   0  0  0  0  0  0  0  0  0  0  0  0
  147.8154  160.6747  132.6021 H   0  0  0  0  0  0  0  0  0  0  0  0
  146.7025  156.9962  131.8848 H   0  0  0  0  0  0  0  0  0  0  0  0
  148.4149  157.3059  132.3604 H   0  0  0  0  0  0  0  0  0  0  0  0
  145.2490  155.8880  134.2410 H   0  0  0  0  0  0  0  0  0  0  0  0
  146.3773  154.8359  135.9559 H   0  0  0  0  0  0  0  0  0  0  0  0
  145.8602  153.5595  134.8027 H   0  0  0  0  0  0  0  0  0  0  0  0
  147.5622  154.1339  134.8027 H   0  0  0  0  0  0  0  0  0  0  0  0
  145.6795  153.8236  132.7231 H   0  0  0  0  0  0  0  0  0  0  0  0
  145.2168  155.4309  132.0681 H   0  0  0  0  0  0  0  0  0  0  0  0
  146.9398  154.9232  132.0681 H   0  0  0  0  0  0  0  0  0  0  0  0
  146.1123  161.2669  133.4169 H   0  0  0  0  0  0  0  0  0  0  0  0
  143.7954  161.9115  134.1508 H   0  0  0  0  0  0  0  0  0  0  0  0
  141.2482  160.8268  134.8495 H   0  0  0  0  0  0  0  0  0  0  0  0
  139.4630  158.9850  136.8850 H   0  0  0  0  0  0  0  0  0  0  0  0
  144.9314  157.0687  133.3780 H   0  0  0  0  0  0  0  0  0  0  0  0
  1  2  1  0
  2  3  1  0
  3  4  1  0
  4  5  2  0
  4  6  1  0
  6  7  1  0
  6  8  1  0
  2  9  1  0
  9 10  2  0
 10 11  1  0
 11 12  2  0
 12 13  1  0
 13 14  2  0
 14 15  1  0
 15 16  1  0
 15 17  2  0
 14 18  1  0
 18 19  1  0
 19 20  2  0
 19 21  1  0
 18 22  1  0
 22 23  2  0
 23  9  1  0
 22 12  1  0
  1 24  1  0
  1 25  1  0
  1 26  1  0
  3 27  1  0
  3 28  1  0
  6 29  1  0
  7 30  1  0
  7 31  1  0
  7 32  1  0
  8 33  1  0
  8 34  1  0
  8 35  1  0
 10 36  1  0
 11 37  1  0
 13 38  1  0
 16 39  1  0
 23 40  1  0
M  CHG  3   6   1  16  -1  21  -1
M  END
>  <UniqueID>  (75) 
75

>  <SMILES>  (75) 
CN(CC(=O)[NH+](C)C)c1ccc2cc(C([NH-])=O)n(C(=O)[O-])c2c1

>  <Energy>  (75) 
78.6330394182516

>  <Genealogy>  (75) 
CN(CC(=O)[NH+](C)C)c1ccc2cc(C([NH-])=O)n(C(=O)[O-])c2c1 (protonated)
CN(CC(=O)[NH+](C)C)c1ccc2cc(C([NH-])=O)n(C(=O)[O-])c2c1 (3D coordinates assigned)
CN(CC(=O)[NH+](C)C)c1ccc2cc(C([NH-])=O)n(C(=O)[O-])c2c1 (optimized conformer: 78.6330394182516 kcal/mol)

>  <smiles>  (75) 
CN(C)C(=O)CN(C)c1ccc2cc(C(N)=O)n(C(=O)O)c2c1

>  <score_type>  (75) 
oracle

>  <origin>  (75) 
adg

>  <m_score__min__energy>  (75) 
-5.2999999999999998

>  <m_primary>  (75) 
energy

$$$$
75:0
     RDKit          3D

 51 53  0  0  0  0  0  0  0  0999 V2000
  146.6650  154.8300  135.1940 C   0  0  0  0  0  0  0  0  0  0  0  0
  145.5870  155.5980  135.0440 C   0  0  0  0  0  0  0  0  0  0  0  0
  145.2190  156.2040  133.7510 C   0  0  0  0  0  0  0  0  0  0  0  0
  145.1160  155.4880  132.7170 O   0  0  0  0  0  0  0  0  0  0  0  0
  144.9580  157.6140  133.6640 N   0  0  0  0  0  0  0  0  0  0  0  0
  145.8090  158.5870  133.2320 C   0  0  0  0  0  0  0  0  0  0  0  0
  147.1470  158.3530  132.6420 C   0  0  0  0  0  0  0  0  0  0  0  0
  147.4060  157.1950  131.8460 N   0  0  0  0  0  0  0  0  0  0  0  0
  148.0830  159.1690  132.8560 O   0  0  0  0  0  0  0  0  0  0  0  0
  145.2150  159.8430  133.3560 C   0  0  0  0  0  0  0  0  0  0  0  0
  143.9680  159.6060  133.8890 C   0  0  0  0  0  0  0  0  0  0  0  0
  142.9610  160.4990  134.2420 C   0  0  0  0  0  0  0  0  0  0  0  0
  141.7870  159.9770  134.8100 C   0  0  0  0  0  0  0  0  0  0  0  0
  141.6440  158.5820  135.0170 C   0  0  0  0  0  0  0  0  0  0  0  0
  140.4040  158.0380  135.6770 C   0  0  0  0  0  0  0  0  0  0  0  0
  139.4790  157.3660  134.6570 C   0  0  0  0  0  0  0  0  0  0  0  0
  138.7330  158.3360  133.9390 O   0  0  0  0  0  0  0  0  0  0  0  0
  138.6600  158.0250  132.5550 C   0  0  2  0  0  0  0  0  0  0  0  0
  140.0350  158.2490  131.9230 C   0  0  0  0  0  0  0  0  0  0  0  0
  140.4790  159.7190  131.9980 C   0  0  0  0  0  0  0  0  0  0  0  0
  139.2990  160.6990  132.1500 C   0  0  0  0  0  0  0  0  0  0  0  0
  138.0890  160.2510  131.4330 N   0  0  0  0  0  0  0  0  0  0  0  0
  138.2390  160.3620  129.9730 C   0  0  0  0  0  0  0  0  0  0  0  0
  137.5980  158.9130  131.8560 C   0  0  0  0  0  0  0  0  0  0  0  0
  142.6900  157.7080  134.6520 C   0  0  0  0  0  0  0  0  0  0  0  0
  143.8380  158.2540  134.0680 C   0  0  0  0  0  0  0  0  0  0  0  0
  146.9005  154.3988  136.1782 H   0  0  0  0  0  0  0  0  0  0  0  0
  147.3197  154.6270  134.3337 H   0  0  0  0  0  0  0  0  0  0  0  0
  144.9468  155.7874  135.9182 H   0  0  0  0  0  0  0  0  0  0  0  0
  146.6460  156.5280  131.5880 H   0  0  0  0  0  0  0  0  0  0  0  0
  148.3640  157.0230  131.4690 H   0  0  0  0  0  0  0  0  0  0  0  0
  145.6505  160.8162  133.0854 H   0  0  0  0  0  0  0  0  0  0  0  0
  143.0806  161.5806  134.0812 H   0  0  0  0  0  0  0  0  0  0  0  0
  140.9713  160.6570  135.0967 H   0  0  0  0  0  0  0  0  0  0  0  0
  140.6975  157.2982  136.4363 H   0  0  0  0  0  0  0  0  0  0  0  0
  139.8609  158.8756  136.1389 H   0  0  0  0  0  0  0  0  0  0  0  0
  140.0858  156.7815  133.9498 H   0  0  0  0  0  0  0  0  0  0  0  0
  138.7791  156.7091  135.1942 H   0  0  0  0  0  0  0  0  0  0  0  0
  138.3624  156.9733  132.4311 H   0  0  0  0  0  0  0  0  0  0  0  0
  140.7731  157.6290  132.4529 H   0  0  0  0  0  0  0  0  0  0  0  0
  139.9663  157.9719  130.8607 H   0  0  0  0  0  0  0  0  0  0  0  0
  141.1478  159.8392  132.8630 H   0  0  0  0  0  0  0  0  0  0  0  0
  140.9846  159.9581  131.0508 H   0  0  0  0  0  0  0  0  0  0  0  0
  139.0584  160.7967  133.2189 H   0  0  0  0  0  0  0  0  0  0  0  0
  139.6073  161.6599  131.7123 H   0  0  0  0  0  0  0  0  0  0  0  0
  139.1033  161.0016  129.7408 H   0  0  0  0  0  0  0  0  0  0  0  0
  138.3971  159.3617  129.5436 H   0  0  0  0  0  0  0  0  0  0  0  0
  137.3286  160.8057  129.5436 H   0  0  0  0  0  0  0  0  0  0  0  0
  136.7609  159.0601  132.5543 H   0  0  0  0  0  0  0  0  0  0  0  0
  137.3065  158.3838  130.9368 H   0  0  0  0  0  0  0  0  0  0  0  0
  142.6049  156.6246  134.8224 H   0  0  0  0  0  0  0  0  0  0  0  0
  1  2  2  0
  2  3  1  0
  3  4  2  0
  3  5  1  0
  5  6  1  0
  6  7  1  0
  7  8  1  0
  7  9  2  0
  6 10  2  0
 10 11  1  0
 11 12  2  0
 12 13  1  0
 13 14  2  0
 14 15  1  0
 15 16  1  0
 16 17  1  0
 17 18  1  0
 18 19  1  0
 19 20  1  0
 20 21  1  0
 21 22  1  0
 22 23  1  0
 22 24  1  0
 14 25  1  0
 25 26  2  0
 26  5  1  0
 26 11  1  0
 24 18  1  0
  1 27  1  0
  1 28  1  0
  2 29  1  0
  8 30  1  0
  8 31  1  0
 10 32  1  0
 12 33  1  0
 13 34  1  0
 15 35  1  0
 15 36  1  0
 16 37  1  0
 16 38  1  0
 18 39  1  1
 19 40  1  0
 19 41  1  0
 20 42  1  0
 20 43  1  0
 21 44  1  0
 21 45  1  0
 23 46  1  0
 23 47  1  0
 23 48  1  0
 24 49  1  0
 24 50  1  0
 25 51  1  0
M  END
>  <UniqueID>  (76) 
76

>  <SMILES>  (76) 
C=CC(=O)n1c(C(N)=O)cc2ccc(CCO[C@@H]3CCCN(C)C3)cc21

>  <Energy>  (76) 
98.51496798936483

>  <Genealogy>  (76) 
C=CC(=O)n1c(C(N)=O)cc2ccc(CCO[C@@H]3CCCN(C)C3)cc21 (chirality)
C=CC(=O)n1c(C(N)=O)cc2ccc(CCO[C@@H]3CCCN(C)C3)cc21 (3D coordinates assigned)
C=CC(=O)n1c(C(N)=O)cc2ccc(CCO[C@@H]3CCCN(C)C3)cc21 (nonaromatic ring conformer: 98.51496798936483 kcal/mol)

>  <smiles>  (76) 
C=CC(=O)n1c(C(N)=O)cc2ccc(CCOC3CCCN(C)C3)cc21

>  <score_type>  (76) 
oracle

>  <origin>  (76) 
adg

>  <m_score__min__energy>  (76) 
-8.1199999999999992

>  <m_primary>  (76) 
energy

$$$$
76:0
     RDKit          3D

 40 41  0  0  0  0  0  0  0  0999 V2000
  140.1140  159.0250  132.2040 C   0  0  0  0  0  0  0  0  0  0  0  0
  140.6220  159.0510  133.6420 C   0  0  0  0  0  0  0  0  0  0  0  0
  142.0710  159.4530  133.6870 C   0  0  0  0  0  0  0  0  0  0  0  0
  142.4270  160.8240  133.7390 C   0  0  0  0  0  0  0  0  0  0  0  0
  143.7760  161.2130  133.7360 C   0  0  0  0  0  0  0  0  0  0  0  0
  144.7440  160.2140  133.6780 C   0  0  0  0  0  0  0  0  0  0  0  0
  146.1160  160.3120  133.6330 C   0  0  0  0  0  0  0  0  0  0  0  0
  146.5790  159.0000  133.5640 C   0  0  0  0  0  0  0  0  0  0  0  0
  148.0110  158.6260  133.5850 C   0  0  0  0  0  0  0  0  0  0  0  0
  148.4810  157.5860  134.4430 N   0  0  0  0  0  0  0  0  0  0  0  0
  148.8260  159.2040  132.8190 O   0  0  0  0  0  0  0  0  0  0  0  0
  145.5330  158.1250  133.5640 N   0  0  0  0  0  0  0  0  0  0  0  0
  145.5830  156.6940  133.4530 C   0  0  0  0  0  0  0  0  0  0  0  0
  144.8480  156.1060  132.6150 O   0  0  0  0  0  0  0  0  0  0  0  0
  146.4420  155.9690  134.2930 O   0  0  0  0  0  0  0  0  0  0  0  0
  146.2580  154.6200  134.7480 C   0  0  0  0  0  0  0  0  0  0  0  0
  144.8110  154.4080  135.2320 C   0  0  0  0  0  0  0  0  0  0  0  0
  146.6160  153.6260  133.6270 C   0  0  0  0  0  0  0  0  0  0  0  0
  147.1890  154.4000  135.9180 C   0  0  0  0  0  0  0  0  0  0  0  0
  148.0960  155.2340  136.1800 O   0  0  0  0  0  0  0  0  0  0  0  0
  147.0740  153.2560  136.7010 O   0  0  0  0  0  0  0  0  0  0  0  0
  144.4170  158.8840  133.6330 C   0  0  0  0  0  0  0  0  0  0  0  0
  143.0810  158.4680  133.6160 C   0  0  0  0  0  0  0  0  0  0  0  0
  139.0154  158.9688  132.2042 H   0  0  0  0  0  0  0  0  0  0  0  0
  140.4342  159.9407  131.6854 H   0  0  0  0  0  0  0  0  0  0  0  0
  140.5260  158.1468  131.6854 H   0  0  0  0  0  0  0  0  0  0  0  0
  140.0287  159.7736  134.2215 H   0  0  0  0  0  0  0  0  0  0  0  0
  140.5212  158.0431  134.0709 H   0  0  0  0  0  0  0  0  0  0  0  0
  141.6390  161.5903  133.7821 H   0  0  0  0  0  0  0  0  0  0  0  0
  144.0596  162.2750  133.7782 H   0  0  0  0  0  0  0  0  0  0  0  0
  146.7193  161.2317  133.6483 H   0  0  0  0  0  0  0  0  0  0  0  0
  147.8430  157.1100  135.1190 H   0  0  0  0  0  0  0  0  0  0  0  0
  149.4880  157.3110  134.4310 H   0  0  0  0  0  0  0  0  0  0  0  0
  144.7890  154.4048  136.3318 H   0  0  0  0  0  0  0  0  0  0  0  0
  144.1752  155.2226  134.8549 H   0  0  0  0  0  0  0  0  0  0  0  0
  144.4356  153.4453  134.8549 H   0  0  0  0  0  0  0  0  0  0  0  0
  146.9570  152.6793  134.0715 H   0  0  0  0  0  0  0  0  0  0  0  0
  145.7283  153.4401  133.0045 H   0  0  0  0  0  0  0  0  0  0  0  0
  147.4183  154.0488  133.0045 H   0  0  0  0  0  0  0  0  0  0  0  0
  142.8237  157.4006  133.5490 H   0  0  0  0  0  0  0  0  0  0  0  0
  1  2  1  0
  2  3  1  0
  3  4  2  0
  4  5  1  0
  5  6  2  0
  6  7  1  0
  7  8  2  0
  8  9  1  0
  9 10  1  0
  9 11  2  0
  8 12  1  0
 12 13  1  0
 13 14  2  0
 13 15  1  0
 15 16  1  0
 16 17  1  0
 16 18  1  0
 16 19  1  0
 19 20  2  0
 19 21  1  0
 12 22  1  0
 22 23  2  0
 23  3  1  0
 22  6  1  0
  1 24  1  0
  1 25  1  0
  1 26  1  0
  2 27  1  0
  2 28  1  0
  4 29  1  0
  5 30  1  0
  7 31  1  0
 10 32  1  0
 10 33  1  0
 17 34  1  0
 17 35  1  0
 17 36  1  0
 18 37  1  0
 18 38  1  0
 18 39  1  0
 23 40  1  0
M  CHG  1  21  -1
M  END
>  <UniqueID>  (77) 
77

>  <SMILES>  (77) 
CCc1ccc2cc(C(N)=O)n(C(=O)OC(C)(C)C(=O)[O-])c2c1

>  <Energy>  (77) 
72.79516835155866

>  <Genealogy>  (77) 
CCc1ccc2cc(C(N)=O)n(C(=O)OC(C)(C)C(=O)[O-])c2c1 (protonated)
CCc1ccc2cc(C(N)=O)n(C(=O)OC(C)(C)C(=O)[O-])c2c1 (3D coordinates assigned)
CCc1ccc2cc(C(N)=O)n(C(=O)OC(C)(C)C(=O)[O-])c2c1 (optimized conformer: 72.79516835155866 kcal/mol)

>  <smiles>  (77) 
CCc1ccc2cc(C(N)=O)n(C(=O)OC(C)(C)C(=O)O)c2c1

>  <score_type>  (77) 
oracle

>  <origin>  (77) 
adg

>  <m_score__min__energy>  (77) 
-7.1100000000000003

>  <m_primary>  (77) 
energy

$$$$
77:0
     RDKit          3D

 43 45  0  0  0  0  0  0  0  0999 V2000
  139.7870  158.2160  135.4730 C   0  0  0  0  0  0  0  0  0  0  0  0
  140.4330  158.1710  134.1550 N   0  0  0  0  0  0  0  0  0  0  0  0
  139.6580  157.6600  133.0160 C   0  0  0  0  0  0  0  0  0  0  0  0
  139.2330  158.7860  132.1220 C   0  0  0  0  0  0  0  0  0  0  0  0
  138.3720  158.6840  131.0480 C   0  0  0  0  0  0  0  0  0  0  0  0
  138.2540  159.9600  130.5440 C   0  0  0  0  0  0  0  0  0  0  0  0
  139.0460  160.7610  131.3400 C   0  0  0  0  0  0  0  0  0  0  0  0
  139.6160  160.0320  132.2720 O   0  0  0  0  0  0  0  0  0  0  0  0
  141.7940  158.6490  133.9950 C   0  0  0  0  0  0  0  0  0  0  0  0
  142.0960  160.0360  134.1030 C   0  0  0  0  0  0  0  0  0  0  0  0
  143.4130  160.5030  133.9690 C   0  0  0  0  0  0  0  0  0  0  0  0
  144.4140  159.5730  133.7170 C   0  0  0  0  0  0  0  0  0  0  0  0
  145.7710  159.7520  133.5780 C   0  0  0  0  0  0  0  0  0  0  0  0
  146.2870  158.4780  133.3560 C   0  0  0  0  0  0  0  0  0  0  0  0
  147.7160  158.2150  133.0900 C   0  0  0  0  0  0  0  0  0  0  0  0
  148.4830  157.3640  133.9430 N   0  0  0  0  0  0  0  0  0  0  0  0
  148.2540  158.7060  132.0620 O   0  0  0  0  0  0  0  0  0  0  0  0
  145.2930  157.5470  133.3710 N   0  0  0  0  0  0  0  0  0  0  0  0
  145.4330  156.1190  133.2900 C   0  0  0  0  0  0  0  0  0  0  0  0
  144.5740  155.4380  132.6680 O   0  0  0  0  0  0  0  0  0  0  0  0
  146.5230  155.4900  133.9020 O   0  0  0  0  0  0  0  0  0  0  0  0
  146.4310  154.2300  134.5630 C   0  0  0  0  0  0  0  0  0  0  0  0
  147.2060  154.2560  135.8410 C   0  0  0  0  0  0  0  0  0  0  0  0
  147.0720  153.3260  136.6790 O   0  0  0  0  0  0  0  0  0  0  0  0
  148.0990  155.2890  136.0950 O   0  0  0  0  0  0  0  0  0  0  0  0
  144.1500  158.2340  133.5910 C   0  0  0  0  0  0  0  0  0  0  0  0
  142.8500  157.7370  133.7430 C   0  0  0  0  0  0  0  0  0  0  0  0
  140.5543  158.1626  136.2594 H   0  0  0  0  0  0  0  0  0  0  0  0
  139.2238  159.1556  135.5734 H   0  0  0  0  0  0  0  0  0  0  0  0
  139.0990  157.3636  135.5734 H   0  0  0  0  0  0  0  0  0  0  0  0
  140.2792  156.9568  132.4419 H   0  0  0  0  0  0  0  0  0  0  0  0
  138.7607  157.1501  133.3966 H   0  0  0  0  0  0  0  0  0  0  0  0
  137.8822  157.7733  130.6729 H   0  0  0  0  0  0  0  0  0  0  0  0
  137.6501  160.2766  129.6809 H   0  0  0  0  0  0  0  0  0  0  0  0
  139.1799  161.8455  131.2135 H   0  0  0  0  0  0  0  0  0  0  0  0
  141.2843  160.7533  134.2945 H   0  0  0  0  0  0  0  0  0  0  0  0
  143.6457  161.5742  134.0608 H   0  0  0  0  0  0  0  0  0  0  0  0
  146.3287  160.6986  133.6309 H   0  0  0  0  0  0  0  0  0  0  0  0
  148.0290  156.8060  134.6990 H   0  0  0  0  0  0  0  0  0  0  0  0
  149.5030  157.2250  133.7640 H   0  0  0  0  0  0  0  0  0  0  0  0
  145.3755  154.0121  134.7832 H   0  0  0  0  0  0  0  0  0  0  0  0
  146.8482  153.4512  133.9077 H   0  0  0  0  0  0  0  0  0  0  0  0
  142.6513  156.6577  133.6682 H   0  0  0  0  0  0  0  0  0  0  0  0
  1  2  1  0
  2  3  1  0
  3  4  1  0
  4  5  2  0
  5  6  1  0
  6  7  2  0
  7  8  1  0
  2  9  1  0
  9 10  2  0
 10 11  1  0
 11 12  2  0
 12 13  1  0
 13 14  2  0
 14 15  1  0
 15 16  1  0
 15 17  2  0
 14 18  1  0
 18 19  1  0
 19 20  2  0
 19 21  1  0
 21 22  1  0
 22 23  1  0
 23 24  2  0
 23 25  1  0
 18 26  1  0
 26 27  2  0
  8  4  1  0
 27  9  1  0
 26 12  1  0
  1 28  1  0
  1 29  1  0
  1 30  1  0
  3 31  1  0
  3 32  1  0
  5 33  1  0
  6 34  1  0
  7 35  1  0
 10 36  1  0
 11 37  1  0
 13 38  1  0
 16 39  1  0
 16 40  1  0
 22 41  1  0
 22 42  1  0
 27 43  1  0
M  CHG  1  25  -1
M  END
>  <UniqueID>  (78) 
78

>  <SMILES>  (78) 
CN(Cc1ccco1)c1ccc2cc(C(N)=O)n(C(=O)OCC(=O)[O-])c2c1

>  <Energy>  (78) 
109.26880985480365

>  <Genealogy>  (78) 
CN(Cc1ccco1)c1ccc2cc(C(N)=O)n(C(=O)OCC(=O)[O-])c2c1 (protonated)
CN(Cc1ccco1)c1ccc2cc(C(N)=O)n(C(=O)OCC(=O)[O-])c2c1 (3D coordinates assigned)
CN(Cc1ccco1)c1ccc2cc(C(N)=O)n(C(=O)OCC(=O)[O-])c2c1 (optimized conformer: 109.26880985480365 kcal/mol)

>  <smiles>  (78) 
CN(Cc1ccco1)c1ccc2cc(C(N)=O)n(C(=O)OCC(=O)O)c2c1

>  <score_type>  (78) 
oracle

>  <origin>  (78) 
adg

>  <m_score__min__energy>  (78) 
-7.9500000000000002

>  <m_primary>  (78) 
energy

$$$$
78:0
     RDKit          3D

 41 42  0  0  0  0  0  0  0  0999 V2000
  149.5830  160.8790  130.3530 C   0  0  0  0  0  0  0  0  0  0  0  0
  148.2020  160.4840  130.8660 C   0  0  0  0  0  0  0  0  0  0  0  0
  148.2940  159.9410  132.1810 O   0  0  0  0  0  0  0  0  0  0  0  0
  148.5070  158.5820  132.4390 C   0  0  0  0  0  0  0  0  0  0  0  0
  149.4400  157.9560  131.8640 O   0  0  0  0  0  0  0  0  0  0  0  0
  147.6240  157.8710  133.4230 C   0  0  2  0  0  0  0  0  0  0  0  0
  148.0740  156.4230  133.5860 C   0  0  0  0  0  0  0  0  0  0  0  0
  146.2700  157.8950  132.9750 O   0  0  0  0  0  0  0  0  0  0  0  0
  145.1930  157.4480  133.7500 C   0  0  0  0  0  0  0  0  0  0  0  0
  145.3150  156.4230  134.4770 O   0  0  0  0  0  0  0  0  0  0  0  0
  143.9470  158.1640  133.7220 N   0  0  0  0  0  0  0  0  0  0  0  0
  143.7650  159.5120  133.6560 C   0  0  0  0  0  0  0  0  0  0  0  0
  144.8240  160.5350  133.7610 C   0  0  0  0  0  0  0  0  0  0  0  0
  145.9850  160.4870  132.9310 N   0  0  0  0  0  0  0  0  0  0  0  0
  144.7290  161.4360  134.6370 O   0  0  0  0  0  0  0  0  0  0  0  0
  142.4140  159.8190  133.5170 C   0  0  0  0  0  0  0  0  0  0  0  0
  141.7650  158.6060  133.5140 C   0  0  0  0  0  0  0  0  0  0  0  0
  140.4090  158.3180  133.3840 C   0  0  0  0  0  0  0  0  0  0  0  0
  140.0200  156.9680  133.3710 C   0  0  0  0  0  0  0  0  0  0  0  0
  140.9870  155.9380  133.4780 C   0  0  0  0  0  0  0  0  0  0  0  0
  140.5710  154.4950  133.4410 C   0  0  0  0  0  0  0  0  0  0  0  0
  141.4240  153.7830  132.6180 F   0  0  0  0  0  0  0  0  0  0  0  0
  139.2800  154.3960  132.9540 F   0  0  0  0  0  0  0  0  0  0  0  0
  142.3550  156.2680  133.6030 C   0  0  0  0  0  0  0  0  0  0  0  0
  142.7120  157.6210  133.6360 C   0  0  0  0  0  0  0  0  0  0  0  0
  150.2503  161.0699  131.2063 H   0  0  0  0  0  0  0  0  0  0  0  0
  149.9943  160.0625  129.7413 H   0  0  0  0  0  0  0  0  0  0  0  0
  149.5003  161.7895  129.7413 H   0  0  0  0  0  0  0  0  0  0  0  0
  147.5553  161.3736  130.8862 H   0  0  0  0  0  0  0  0  0  0  0  0
  147.7781  159.7220  130.1954 H   0  0  0  0  0  0  0  0  0  0  0  0
  147.6981  158.3865  134.3919 H   0  0  0  0  0  0  0  0  0  0  0  0
  148.1493  156.1807  134.6563 H   0  0  0  0  0  0  0  0  0  0  0  0
  147.3410  155.7554  133.1096 H   0  0  0  0  0  0  0  0  0  0  0  0
  149.0563  156.2885  133.1096 H   0  0  0  0  0  0  0  0  0  0  0  0
  146.1770  159.6630  132.3190 H   0  0  0  0  0  0  0  0  0  0  0  0
  146.7040  161.2410  132.9910 H   0  0  0  0  0  0  0  0  0  0  0  0
  141.9622  160.8180  133.4285 H   0  0  0  0  0  0  0  0  0  0  0  0
  139.6648  159.1230  133.2942 H   0  0  0  0  0  0  0  0  0  0  0  0
  138.9552  156.7084  133.2769 H   0  0  0  0  0  0  0  0  0  0  0  0
  140.6145  154.0820  134.4596 H   0  0  0  0  0  0  0  0  0  0  0  0
  143.1205  155.4812  133.6727 H   0  0  0  0  0  0  0  0  0  0  0  0
  1  2  1  0
  2  3  1  0
  3  4  1  0
  4  5  2  0
  4  6  1  0
  6  7  1  0
  6  8  1  0
  8  9  1  0
  9 10  2  0
  9 11  1  0
 11 12  1  0
 12 13  1  0
 13 14  1  0
 13 15  2  0
 12 16  2  0
 16 17  1  0
 17 18  2  0
 18 19  1  0
 19 20  2  0
 20 21  1  0
 21 22  1  0
 21 23  1  0
 20 24  1  0
 24 25  2  0
 25 11  1  0
 25 17  1  0
  1 26  1  0
  1 27  1  0
  1 28  1  0
  2 29  1  0
  2 30  1  0
  6 31  1  1
  7 32  1  0
  7 33  1  0
  7 34  1  0
 14 35  1  0
 14 36  1  0
 16 37  1  0
 18 38  1  0
 19 39  1  0
 21 40  1  0
 24 41  1  0
M  END
>  <UniqueID>  (79) 
79

>  <SMILES>  (79) 
CCOC(=O)[C@H](C)OC(=O)n1c(C(N)=O)cc2ccc(C(F)F)cc21

>  <Energy>  (79) 
70.51823595106445

>  <Genealogy>  (79) 
CCOC(=O)[C@H](C)OC(=O)n1c(C(N)=O)cc2ccc(C(F)F)cc21 (chirality)
CCOC(=O)[C@H](C)OC(=O)n1c(C(N)=O)cc2ccc(C(F)F)cc21 (3D coordinates assigned)
CCOC(=O)[C@H](C)OC(=O)n1c(C(N)=O)cc2ccc(C(F)F)cc21 (optimized conformer: 70.51823595106445 kcal/mol)

>  <smiles>  (79) 
CCOC(=O)C(C)OC(=O)n1c(C(N)=O)cc2ccc(C(F)F)cc21

>  <score_type>  (79) 
oracle

>  <origin>  (79) 
adg

>  <m_score__min__energy>  (79) 
-6.5199999999999996

>  <m_primary>  (79) 
energy

$$$$
79:0
     RDKit          3D

 51 52  0  0  0  0  0  0  0  0999 V2000
  139.4870  149.8990  130.0680 C   0  0  0  0  0  0  0  0  0  0  0  0
  139.4860  150.6350  131.3360 N   0  0  0  0  0  0  0  0  0  0  0  0
  140.1000  149.8510  132.4210 C   0  0  0  0  0  0  0  0  0  0  0  0
  141.5630  150.2530  132.6050 C   0  0  0  0  0  0  0  0  0  0  0  0
  141.6750  151.6610  132.6100 O   0  0  0  0  0  0  0  0  0  0  0  0
  142.7710  152.0720  133.4030 C   0  0  0  0  0  0  0  0  0  0  0  0
  144.0750  151.9290  132.6120 C   0  0  0  0  0  0  0  0  0  0  0  0
  145.1500  152.6940  133.2470 N   0  0  0  0  0  0  0  0  0  0  0  0
  145.2470  154.1310  133.2450 C   0  0  0  0  0  0  0  0  0  0  0  0
  146.4820  154.7970  133.0170 C   0  0  0  0  0  0  0  0  0  0  0  0
  146.5520  156.1980  133.0290 C   0  0  0  0  0  0  0  0  0  0  0  0
  145.3810  156.9110  133.2590 C   0  0  0  0  0  0  0  0  0  0  0  0
  145.1840  158.2680  133.3390 C   0  0  0  0  0  0  0  0  0  0  0  0
  143.8320  158.4250  133.6130 C   0  0  0  0  0  0  0  0  0  0  0  0
  143.2080  159.7470  133.7990 C   0  0  0  0  0  0  0  0  0  0  0  0
  142.1060  160.1570  132.9900 N   0  0  0  0  0  0  0  0  0  0  0  0
  143.6010  160.4870  134.7410 O   0  0  0  0  0  0  0  0  0  0  0  0
  143.1960  157.2170  133.6750 N   0  0  0  0  0  0  0  0  0  0  0  0
  141.7760  156.9860  133.8100 C   0  0  0  0  0  0  0  0  0  0  0  0
  141.3380  156.1940  134.6880 O   0  0  0  0  0  0  0  0  0  0  0  0
  140.8760  157.6190  132.9470 O   0  0  0  0  0  0  0  0  0  0  0  0
  139.4680  157.4130  132.9980 C   0  0  0  0  0  0  0  0  0  0  0  0
  138.7970  158.2870  131.9440 C   0  0  0  0  0  0  0  0  0  0  0  0
  139.6900  159.4190  131.5400 C   0  0  0  0  0  0  0  0  0  0  0  0
  140.4240  159.3120  130.5200 O   0  0  0  0  0  0  0  0  0  0  0  0
  139.7240  160.5850  132.2980 O   0  0  0  0  0  0  0  0  0  0  0  0
  144.1720  156.2950  133.4660 C   0  0  0  0  0  0  0  0  0  0  0  0
  144.0780  154.8940  133.4680 C   0  0  0  0  0  0  0  0  0  0  0  0
  139.4885  148.8180  130.2715 H   0  0  0  0  0  0  0  0  0  0  0  0
  138.5885  150.1622  129.4906 H   0  0  0  0  0  0  0  0  0  0  0  0
  140.3848  150.1646  129.4906 H   0  0  0  0  0  0  0  0  0  0  0  0
  140.0580  151.5000  131.1900 H   0  0  0  0  0  0  0  0  0  0  0  0
  139.5525  150.0362  133.3569 H   0  0  0  0  0  0  0  0  0  0  0  0
  140.0528  148.7832  132.1612 H   0  0  0  0  0  0  0  0  0  0  0  0
  141.9341  149.8537  133.5604 H   0  0  0  0  0  0  0  0  0  0  0  0
  142.1592  149.8441  131.7759 H   0  0  0  0  0  0  0  0  0  0  0  0
  142.6354  153.1241  133.6941 H   0  0  0  0  0  0  0  0  0  0  0  0
  142.8232  151.4393  134.3013 H   0  0  0  0  0  0  0  0  0  0  0  0
  144.3604  150.8673  132.5745 H   0  0  0  0  0  0  0  0  0  0  0  0
  143.9169  152.3170  131.5949 H   0  0  0  0  0  0  0  0  0  0  0  0
  145.8960  152.1470  133.7350 H   0  0  0  0  0  0  0  0  0  0  0  0
  147.3918  154.2079  132.8293 H   0  0  0  0  0  0  0  0  0  0  0  0
  147.5068  156.7179  132.8611 H   0  0  0  0  0  0  0  0  0  0  0  0
  145.9363  159.0606  133.2130 H   0  0  0  0  0  0  0  0  0  0  0  0
  141.7040  159.5150  132.2690 H   0  0  0  0  0  0  0  0  0  0  0  0
  141.6640  161.0920  133.1350 H   0  0  0  0  0  0  0  0  0  0  0  0
  139.2430  156.3552  132.7968 H   0  0  0  0  0  0  0  0  0  0  0  0
  139.0904  157.6803  133.9960 H   0  0  0  0  0  0  0  0  0  0  0  0
  138.5702  157.6740  131.0593 H   0  0  0  0  0  0  0  0  0  0  0  0
  137.8726  158.7039  132.3703 H   0  0  0  0  0  0  0  0  0  0  0  0
  143.1111  154.3986  133.6402 H   0  0  0  0  0  0  0  0  0  0  0  0
  1  2  1  0
  2  3  1  0
  3  4  1  0
  4  5  1  0
  5  6  1  0
  6  7  1  0
  7  8  1  0
  8  9  1  0
  9 10  2  0
 10 11  1  0
 11 12  2  0
 12 13  1  0
 13 14  2  0
 14 15  1  0
 15 16  1  0
 15 17  2  0
 14 18  1  0
 18 19  1  0
 19 20  2  0
 19 21  1  0
 21 22  1  0
 22 23  1  0
 23 24  1  0
 24 25  2  0
 24 26  1  0
 18 27  1  0
 27 28  2  0
 28  9  1  0
 27 12  1  0
  1 29  1  0
  1 30  1  0
  1 31  1  0
  2 32  1  0
  3 33  1  0
  3 34  1  0
  4 35  1  0
  4 36  1  0
  6 37  1  0
  6 38  1  0
  7 39  1  0
  7 40  1  0
  8 41  1  0
 10 42  1  0
 11 43  1  0
 13 44  1  0
 16 45  1  0
 16 46  1  0
 22 47  1  0
 22 48  1  0
 23 49  1  0
 23 50  1  0
 28 51  1  0
M  CHG  1  26  -1
M  END
>  <UniqueID>  (80) 
80

>  <SMILES>  (80) 
CNCCOCCNc1ccc2cc(C(N)=O)n(C(=O)OCCC(=O)[O-])c2c1

>  <Energy>  (80) 
84.33681149095521

>  <Genealogy>  (80) 
CNCCOCCNc1ccc2cc(C(N)=O)n(C(=O)OCCC(=O)[O-])c2c1 (protonated)
CNCCOCCNc1ccc2cc(C(N)=O)n(C(=O)OCCC(=O)[O-])c2c1 (3D coordinates assigned)
CNCCOCCNc1ccc2cc(C(N)=O)n(C(=O)OCCC(=O)[O-])c2c1 (optimized conformer: 84.33681149095521 kcal/mol)

>  <smiles>  (80) 
CNCCOCCNc1ccc2cc(C(N)=O)n(C(=O)OCCC(=O)O)c2c1

>  <score_type>  (80) 
oracle

>  <origin>  (80) 
adg

>  <m_score__min__energy>  (80) 
-6.5099999999999998

>  <m_primary>  (80) 
energy

$$$$
80:0
     RDKit          3D

 40 41  0  0  0  0  0  0  0  0999 V2000
  141.6950  160.1840  133.9130 N   0  0  0  0  0  0  0  0  0  0  0  0
  142.9920  160.7440  133.7280 C   0  0  0  0  0  0  0  0  0  0  0  0
  143.1260  161.9970  133.7150 O   0  0  0  0  0  0  0  0  0  0  0  0
  144.1830  159.8800  133.5810 C   0  0  0  0  0  0  0  0  0  0  0  0
  145.4910  160.3620  133.5660 C   0  0  0  0  0  0  0  0  0  0  0  0
  146.2910  159.2450  133.4640 C   0  0  0  0  0  0  0  0  0  0  0  0
  147.6770  159.1380  133.3890 C   0  0  0  0  0  0  0  0  0  0  0  0
  148.2310  157.8530  133.2580 C   0  0  0  0  0  0  0  0  0  0  0  0
  147.3960  156.7090  133.1970 C   0  0  0  0  0  0  0  0  0  0  0  0
  148.0090  155.3470  133.0350 C   0  0  0  0  0  0  0  0  0  0  0  0
  149.3080  155.4740  132.5790 F   0  0  0  0  0  0  0  0  0  0  0  0
  148.0130  154.6880  134.2510 F   0  0  0  0  0  0  0  0  0  0  0  0
  145.9940  156.8580  133.2710 C   0  0  0  0  0  0  0  0  0  0  0  0
  145.4720  158.1470  133.4200 C   0  0  0  0  0  0  0  0  0  0  0  0
  144.1770  158.5200  133.4950 N   0  0  0  0  0  0  0  0  0  0  0  0
  143.0370  157.6510  133.4110 C   0  0  0  0  0  0  0  0  0  0  0  0
  142.3550  157.6180  132.3510 O   0  0  0  0  0  0  0  0  0  0  0  0
  142.6520  156.8050  134.5470 C   0  0  0  0  0  0  0  0  0  0  0  0
  143.5390  156.1960  135.2070 O   0  0  0  0  0  0  0  0  0  0  0  0
  141.3000  156.6900  134.8950 O   0  0  0  0  0  0  0  0  0  0  0  0
  140.2810  156.3320  133.9650 C   0  0  0  0  0  0  0  0  0  0  0  0
  139.6320  157.5610  133.4120 C   0  0  0  0  0  0  0  0  0  0  0  0
  139.4960  158.5800  134.1430 O   0  0  0  0  0  0  0  0  0  0  0  0
  139.1370  157.5480  132.1050 O   0  0  0  0  0  0  0  0  0  0  0  0
  138.3660  158.6150  131.5640 C   0  0  0  0  0  0  0  0  0  0  0  0
  139.2370  159.8590  131.4130 C   0  0  0  0  0  0  0  0  0  0  0  0
  140.5960  159.5210  131.4980 O   0  0  0  0  0  0  0  0  0  0  0  0
  141.4370  159.2710  133.4780 H   0  0  0  0  0  0  0  0  0  0  0  0
  145.8155  161.4115  133.6234 H   0  0  0  0  0  0  0  0  0  0  0  0
  148.3182  160.0308  133.4310 H   0  0  0  0  0  0  0  0  0  0  0  0
  149.3231  157.7338  133.2022 H   0  0  0  0  0  0  0  0  0  0  0  0
  147.4182  154.7699  132.3084 H   0  0  0  0  0  0  0  0  0  0  0  0
  145.3296  155.9832  133.2130 H   0  0  0  0  0  0  0  0  0  0  0  0
  140.7269  155.7547  133.1417 H   0  0  0  0  0  0  0  0  0  0  0  0
  139.5215  155.7257  134.4802 H   0  0  0  0  0  0  0  0  0  0  0  0
  137.9763  158.3205  130.5784 H   0  0  0  0  0  0  0  0  0  0  0  0
  137.5294  158.8382  132.2424 H   0  0  0  0  0  0  0  0  0  0  0  0
  139.0398  160.3224  130.4350 H   0  0  0  0  0  0  0  0  0  0  0  0
  138.9944  160.5633  132.2224 H   0  0  0  0  0  0  0  0  0  0  0  0
  140.7160  159.0390  132.3570 H   0  0  0  0  0  0  0  0  0  0  0  0
  1  2  1  0
  2  3  2  0
  2  4  1  0
  4  5  2  0
  5  6  1  0
  6  7  2  0
  7  8  1  0
  8  9  2  0
  9 10  1  0
 10 11  1  0
 10 12  1  0
  9 13  1  0
 13 14  2  0
 14 15  1  0
 15 16  1  0
 16 17  2  0
 16 18  1  0
 18 19  2  0
 18 20  1  0
 20 21  1  0
 21 22  1  0
 22 23  2  0
 22 24  1  0
 24 25  1  0
 25 26  1  0
 26 27  1  0
 15  4  1  0
 14  6  1  0
  1 28  1  0
  5 29  1  0
  7 30  1  0
  8 31  1  0
 10 32  1  0
 13 33  1  0
 21 34  1  0
 21 35  1  0
 25 36  1  0
 25 37  1  0
 26 38  1  0
 26 39  1  0
 27 40  1  0
M  CHG  1   1  -1
M  END
>  <UniqueID>  (81) 
81

>  <SMILES>  (81) 
[NH-]C(=O)c1cc2ccc(C(F)F)cc2n1C(=O)C(=O)OCC(=O)OCCO

>  <Energy>  (81) 
71.43297014229074

>  <Genealogy>  (81) 
[NH-]C(=O)c1cc2ccc(C(F)F)cc2n1C(=O)C(=O)OCC(=O)OCCO (protonated)
[NH-]C(=O)c1cc2ccc(C(F)F)cc2n1C(=O)C(=O)OCC(=O)OCCO (3D coordinates assigned)
[NH-]C(=O)c1cc2ccc(C(F)F)cc2n1C(=O)C(=O)OCC(=O)OCCO (optimized conformer: 71.43297014229074 kcal/mol)

>  <smiles>  (81) 
NC(=O)c1cc2ccc(C(F)F)cc2n1C(=O)C(=O)OCC(=O)OCCO

>  <score_type>  (81) 
oracle

>  <origin>  (81) 
adg

>  <m_score__min__energy>  (81) 
-5.1299999999999999

>  <m_primary>  (81) 
energy

$$$$
81:0
     RDKit          3D

 37 39  0  0  0  0  0  0  0  0999 V2000
  139.7210  158.2230  136.3970 N   0  0  0  0  0  0  0  0  0  0  0  0
  140.0670  158.1560  135.0150 C   0  0  0  0  0  0  0  0  0  0  0  0
  139.1650  158.2800  134.1470 O   0  0  0  0  0  0  0  0  0  0  0  0
  141.4810  157.9840  134.6210 C   0  0  0  0  0  0  0  0  0  0  0  0
  142.2170  156.8320  134.8880 C   0  0  0  0  0  0  0  0  0  0  0  0
  143.4910  157.1030  134.4440 C   0  0  0  0  0  0  0  0  0  0  0  0
  144.6270  156.3080  134.4590 C   0  0  0  0  0  0  0  0  0  0  0  0
  145.8090  156.8320  133.9130 C   0  0  0  0  0  0  0  0  0  0  0  0
  145.8530  158.1400  133.3410 C   0  0  0  0  0  0  0  0  0  0  0  0
  147.0880  158.6740  132.7610 N   0  0  0  0  0  0  0  0  0  0  0  0
  148.1850  157.7290  132.4380 C   0  0  0  0  0  0  0  0  0  0  0  0
  149.4760  158.3720  131.9230 C   0  0  0  0  0  0  0  0  0  0  0  0
  149.1880  159.5530  131.0140 C   0  0  0  0  0  0  0  0  0  0  0  0
  150.4000  160.0670  130.5280 O   0  0  0  0  0  0  0  0  0  0  0  0
  148.4710  160.6070  131.8420 C   0  0  0  0  0  0  0  0  0  0  0  0
  147.1180  160.0980  132.3500 C   0  0  0  0  0  0  0  0  0  0  0  0
  144.6540  158.9140  133.3610 C   0  0  0  0  0  0  0  0  0  0  0  0
  143.4980  158.3690  133.9310 C   0  0  0  0  0  0  0  0  0  0  0  0
  142.2700  158.9270  134.0290 N   0  0  0  0  0  0  0  0  0  0  0  0
  141.8810  160.2250  133.5490 C   0  0  0  0  0  0  0  0  0  0  0  0
  142.6120  161.2280  133.7620 O   0  0  0  0  0  0  0  0  0  0  0  0
  140.6850  160.3880  132.8630 O   0  0  0  0  0  0  0  0  0  0  0  0
  139.4830  159.1360  136.8470 H   0  0  0  0  0  0  0  0  0  0  0  0
  141.8566  155.9033  135.3545 H   0  0  0  0  0  0  0  0  0  0  0  0
  144.6025  155.2949  134.8869 H   0  0  0  0  0  0  0  0  0  0  0  0
  146.7234  156.2207  133.9259 H   0  0  0  0  0  0  0  0  0  0  0  0
  148.4274  157.1656  133.3511 H   0  0  0  0  0  0  0  0  0  0  0  0
  147.8111  157.1002  131.6165 H   0  0  0  0  0  0  0  0  0  0  0  0
  150.0693  158.7189  132.7819 H   0  0  0  0  0  0  0  0  0  0  0  0
  150.0283  157.6180  131.3429 H   0  0  0  0  0  0  0  0  0  0  0  0
  148.5645  159.2512  130.1595 H   0  0  0  0  0  0  0  0  0  0  0  0
  150.7560  160.6730  131.2300 H   0  0  0  0  0  0  0  0  0  0  0  0
  149.0998  160.8724  132.7047 H   0  0  0  0  0  0  0  0  0  0  0  0
  148.2917  161.4843  131.2032 H   0  0  0  0  0  0  0  0  0  0  0  0
  146.8304  160.7081  133.2189 H   0  0  0  0  0  0  0  0  0  0  0  0
  146.4239  160.1831  131.5009 H   0  0  0  0  0  0  0  0  0  0  0  0
  144.6388  159.9273  132.9332 H   0  0  0  0  0  0  0  0  0  0  0  0
  1  2  1  0
  2  3  2  0
  2  4  1  0
  4  5  2  0
  5  6  1  0
  6  7  2  0
  7  8  1  0
  8  9  2  0
  9 10  1  0
 10 11  1  0
 11 12  1  0
 12 13  1  0
 13 14  1  0
 13 15  1  0
 15 16  1  0
  9 17  1  0
 17 18  2  0
 18 19  1  0
 19 20  1  0
 20 21  2  0
 20 22  1  0
 19  4  1  0
 18  6  1  0
 16 10  1  0
  1 23  1  0
  5 24  1  0
  7 25  1  0
  8 26  1  0
 11 27  1  0
 11 28  1  0
 12 29  1  0
 12 30  1  0
 13 31  1  0
 14 32  1  0
 15 33  1  0
 15 34  1  0
 16 35  1  0
 16 36  1  0
 17 37  1  0
M  CHG  2   1  -1  22  -1
M  END
>  <UniqueID>  (82) 
82

>  <SMILES>  (82) 
[NH-]C(=O)c1cc2ccc(N3CCC(O)CC3)cc2n1C(=O)[O-]

>  <Energy>  (82) 
83.90781406278279

>  <Genealogy>  (82) 
[NH-]C(=O)c1cc2ccc(N3CCC(O)CC3)cc2n1C(=O)[O-] (protonated)
[NH-]C(=O)c1cc2ccc(N3CCC(O)CC3)cc2n1C(=O)[O-] (3D coordinates assigned)
[NH-]C(=O)c1cc2ccc(N3CCC(O)CC3)cc2n1C(=O)[O-] (nonaromatic ring conformer: 83.90781406278279 kcal/mol)

>  <smiles>  (82) 
NC(=O)c1cc2ccc(N3CCC(O)CC3)cc2n1C(=O)O

>  <score_type>  (82) 
oracle

>  <origin>  (82) 
adg

>  <m_score__min__energy>  (82) 
-7.54

>  <m_primary>  (82) 
energy

$$$$
82:0
     RDKit          3D

 37 38  0  0  0  0  0  0  0  0999 V2000
  140.6110  149.8410  133.0150 C   0  0  0  0  0  0  0  0  0  0  0  0
  141.2450  150.7500  133.8860 O   0  0  0  0  0  0  0  0  0  0  0  0
  142.0560  151.6310  133.1350 C   0  0  0  0  0  0  0  0  0  0  0  0
  142.4150  152.8470  133.9860 C   0  0  0  0  0  0  0  0  0  0  0  0
  141.4680  153.9430  133.7500 C   0  0  0  0  0  0  0  0  0  0  0  0
  140.6850  154.8360  133.5430 C   0  0  0  0  0  0  0  0  0  0  0  0
  139.7650  155.9130  133.2950 C   0  0  0  0  0  0  0  0  0  0  0  0
  138.7330  155.6880  132.6110 O   0  0  0  0  0  0  0  0  0  0  0  0
  139.9980  157.2220  133.8440 N   0  0  0  0  0  0  0  0  0  0  0  0
  139.9670  158.4090  133.1770 C   0  0  0  0  0  0  0  0  0  0  0  0
  139.5400  158.6010  131.7760 C   0  0  0  0  0  0  0  0  0  0  0  0
  138.3590  157.9810  131.2690 N   0  0  0  0  0  0  0  0  0  0  0  0
  140.2070  159.3650  131.0270 O   0  0  0  0  0  0  0  0  0  0  0  0
  140.3650  159.4530  134.0060 C   0  0  0  0  0  0  0  0  0  0  0  0
  140.6350  158.8670  135.2220 C   0  0  0  0  0  0  0  0  0  0  0  0
  141.0970  159.4380  136.4030 C   0  0  0  0  0  0  0  0  0  0  0  0
  141.3420  158.5890  137.4940 C   0  0  0  0  0  0  0  0  0  0  0  0
  141.1140  157.1920  137.3910 C   0  0  0  0  0  0  0  0  0  0  0  0
  141.4280  156.2740  138.5450 C   0  0  0  0  0  0  0  0  0  0  0  0
  142.3720  155.3470  138.1470 F   0  0  0  0  0  0  0  0  0  0  0  0
  141.9220  156.9830  139.6260 F   0  0  0  0  0  0  0  0  0  0  0  0
  140.2850  155.6090  138.9510 F   0  0  0  0  0  0  0  0  0  0  0  0
  140.6680  156.6480  136.1650 C   0  0  0  0  0  0  0  0  0  0  0  0
  140.4110  157.5200  135.0990 C   0  0  0  0  0  0  0  0  0  0  0  0
  140.0795  149.0789  133.6038 H   0  0  0  0  0  0  0  0  0  0  0  0
  139.8927  150.3812  132.3807 H   0  0  0  0  0  0  0  0  0  0  0  0
  141.3660  149.3536  132.3807 H   0  0  0  0  0  0  0  0  0  0  0  0
  142.9770  151.1118  132.8313 H   0  0  0  0  0  0  0  0  0  0  0  0
  141.5071  151.9601  132.2404 H   0  0  0  0  0  0  0  0  0  0  0  0
  142.3841  152.5657  135.0490 H   0  0  0  0  0  0  0  0  0  0  0  0
  143.4244  153.1862  133.7102 H   0  0  0  0  0  0  0  0  0  0  0  0
  137.6930  157.4890  131.9040 H   0  0  0  0  0  0  0  0  0  0  0  0
  138.1000  158.0900  130.2630 H   0  0  0  0  0  0  0  0  0  0  0  0
  140.4465  160.5186  133.7455 H   0  0  0  0  0  0  0  0  0  0  0  0
  141.2654  160.5223  136.4800 H   0  0  0  0  0  0  0  0  0  0  0  0
  141.7147  159.0112  138.4389 H   0  0  0  0  0  0  0  0  0  0  0  0
  140.5258  155.5633  136.0503 H   0  0  0  0  0  0  0  0  0  0  0  0
  1  2  1  0
  2  3  1  0
  3  4  1  0
  4  5  1  0
  5  6  3  0
  6  7  1  0
  7  8  2  0
  7  9  1  0
  9 10  1  0
 10 11  1  0
 11 12  1  0
 11 13  2  0
 10 14  2  0
 14 15  1  0
 15 16  2  0
 16 17  1  0
 17 18  2  0
 18 19  1  0
 19 20  1  0
 19 21  1  0
 19 22  1  0
 18 23  1  0
 23 24  2  0
 24  9  1  0
 24 15  1  0
  1 25  1  0
  1 26  1  0
  1 27  1  0
  3 28  1  0
  3 29  1  0
  4 30  1  0
  4 31  1  0
 12 32  1  0
 12 33  1  0
 14 34  1  0
 16 35  1  0
 17 36  1  0
 23 37  1  0
M  END
>  <UniqueID>  (83) 
83

>  <SMILES>  (83) 
COCCC#CC(=O)n1c(C(N)=O)cc2ccc(C(F)(F)F)cc21

>  <Energy>  (83) 
70.66335633693458

>  <Genealogy>  (83) 
COCCC#CC(=O)n1c(C(N)=O)cc2ccc(C(F)(F)F)cc21 (3D coordinates assigned)
COCCC#CC(=O)n1c(C(N)=O)cc2ccc(C(F)(F)F)cc21 (optimized conformer: 70.66335633693458 kcal/mol)

>  <smiles>  (83) 
COCCC#CC(=O)n1c(C(N)=O)cc2ccc(C(F)(F)F)cc21

>  <score_type>  (83) 
oracle

>  <origin>  (83) 
adg

>  <m_score__min__energy>  (83) 
-6.7800000000000002

>  <m_primary>  (83) 
energy

$$$$
83:0
     RDKit          3D

 45 48  0  0  0  0  0  0  0  0999 V2000
  148.6160  158.1690  131.6170 N   0  0  0  0  0  0  0  0  0  0  0  0
  148.2620  158.7610  132.8650 C   0  0  0  0  0  0  0  0  0  0  0  0
  149.1550  158.9480  133.7330 O   0  0  0  0  0  0  0  0  0  0  0  0
  146.8520  159.1080  133.1410 C   0  0  0  0  0  0  0  0  0  0  0  0
  146.4130  160.4110  133.3630 C   0  0  0  0  0  0  0  0  0  0  0  0
  145.0450  160.3180  133.4870 C   0  0  0  0  0  0  0  0  0  0  0  0
  144.1000  161.3110  133.7280 C   0  0  0  0  0  0  0  0  0  0  0  0
  142.7550  160.9260  133.8340 C   0  0  0  0  0  0  0  0  0  0  0  0
  142.3750  159.5630  133.7060 C   0  0  0  0  0  0  0  0  0  0  0  0
  140.9260  159.1460  133.8380 C   0  0  2  0  0  0  0  0  0  0  0  0
  140.6600  158.6020  135.2170 C   0  0  0  0  0  0  0  0  0  0  0  0
  140.6130  159.3610  136.3280 N   0  0  0  0  0  0  0  0  0  0  0  0
  140.4290  158.5040  137.3210 N   0  0  0  0  0  0  0  0  0  0  0  0
  140.3750  157.2680  136.8490 N   0  0  0  0  0  0  0  0  0  0  0  0
  140.5220  157.3040  135.5370 N   0  0  0  0  0  0  0  0  0  0  0  0
  140.5620  158.1140  132.7500 C   0  0  0  0  0  0  0  0  0  0  0  0
  139.5680  158.6010  131.7040 C   0  0  0  0  0  0  0  0  0  0  0  0
  139.1250  157.6130  132.7730 C   0  0  0  0  0  0  0  0  0  0  0  0
  143.3680  158.5860  133.4640 C   0  0  0  0  0  0  0  0  0  0  0  0
  144.6990  159.0010  133.3440 C   0  0  0  0  0  0  0  0  0  0  0  0
  145.7970  158.2430  133.1350 N   0  0  0  0  0  0  0  0  0  0  0  0
  145.8290  156.8140  132.9940 C   0  0  0  0  0  0  0  0  0  0  0  0
  146.8890  156.2420  132.6160 O   0  0  0  0  0  0  0  0  0  0  0  0
  144.6920  156.0610  133.3060 O   0  0  0  0  0  0  0  0  0  0  0  0
  143.9850  155.2720  132.3520 C   0  0  0  0  0  0  0  0  0  0  0  0
  143.0070  154.3290  133.0540 C   0  0  0  0  0  0  0  0  0  0  0  0
  142.0790  155.0920  133.8810 N   0  0  0  0  0  0  0  0  0  0  0  0
  140.8670  155.1270  133.5880 O   0  0  0  0  0  0  0  0  0  0  0  0
  142.4950  155.5880  135.0940 O   0  0  0  0  0  0  0  0  0  0  0  0
  148.4640  157.1510  131.4430 H   0  0  0  0  0  0  0  0  0  0  0  0
  147.0282  161.3207  133.4259 H   0  0  0  0  0  0  0  0  0  0  0  0
  144.3983  162.3647  133.8321 H   0  0  0  0  0  0  0  0  0  0  0  0
  141.9848  161.6893  134.0186 H   0  0  0  0  0  0  0  0  0  0  0  0
  140.2876  160.0300  133.6935 H   0  0  0  0  0  0  0  0  0  0  0  0
  140.5330  156.4710  134.9090 H   0  0  0  0  0  0  0  0  0  0  0  0
  141.5517  157.6345  132.7258 H   0  0  0  0  0  0  0  0  0  0  0  0
  139.2059  159.6393  131.7307 H   0  0  0  0  0  0  0  0  0  0  0  0
  139.5428  158.6206  130.6045 H   0  0  0  0  0  0  0  0  0  0  0  0
  138.4424  157.9372  133.5724 H   0  0  0  0  0  0  0  0  0  0  0  0
  138.6467  156.6225  132.7660 H   0  0  0  0  0  0  0  0  0  0  0  0
  143.1002  157.5231  133.3721 H   0  0  0  0  0  0  0  0  0  0  0  0
  143.4255  155.9362  131.6768 H   0  0  0  0  0  0  0  0  0  0  0  0
  144.7089  154.6720  131.7811 H   0  0  0  0  0  0  0  0  0  0  0  0
  142.4409  153.7642  132.2986 H   0  0  0  0  0  0  0  0  0  0  0  0
  143.5727  153.6361  133.6942 H   0  0  0  0  0  0  0  0  0  0  0  0
  1  2  1  0
  2  3  2  0
  2  4  1  0
  4  5  2  0
  5  6  1  0
  6  7  2  0
  7  8  1  0
  8  9  2  0
  9 10  1  0
 10 11  1  0
 11 12  2  0
 12 13  1  0
 13 14  1  0
 14 15  2  0
 10 16  1  0
 16 17  1  0
 17 18  1  0
  9 19  1  0
 19 20  2  0
 20 21  1  0
 21 22  1  0
 22 23  2  0
 22 24  1  0
 24 25  1  0
 25 26  1  0
 26 27  1  0
 27 28  2  0
 27 29  1  0
 21  4  1  0
 20  6  1  0
 15 11  1  0
 18 16  1  0
  1 30  1  0
  5 31  1  0
  7 32  1  0
  8 33  1  0
 10 34  1  6
 15 35  1  0
 16 36  1  0
 17 37  1  0
 17 38  1  0
 18 39  1  0
 18 40  1  0
 19 41  1  0
 25 42  1  0
 25 43  1  0
 26 44  1  0
 26 45  1  0
M  CHG  5   1  -1  13  -1  15   1  27   1  29  -1
M  END
>  <UniqueID>  (84) 
84

>  <SMILES>  (84) 
[NH-]C(=O)c1cc2ccc([C@H](c3n[n-]n[nH+]3)C3CC3)cc2n1C(=O)OCC[N+](=O)[O-]

>  <Energy>  (84) 
384.3739061639201

>  <Genealogy>  (84) 
[NH-]C(=O)c1cc2ccc(C(c3n[n-]n[nH+]3)C3CC3)cc2n1C(=O)OCC[N+](=O)[O-] (protonated)
[NH-]C(=O)c1cc2ccc([C@H](c3n[n-]n[nH+]3)C3CC3)cc2n1C(=O)OCC[N+](=O)[O-] (chirality)
[NH-]C(=O)c1cc2ccc([C@H](c3n[n-]n[nH+]3)C3CC3)cc2n1C(=O)OCC[N+](=O)[O-] (3D coordinates assigned)
[NH-]C(=O)c1cc2ccc([C@H](c3n[n-]n[nH+]3)C3CC3)cc2n1C(=O)OCC[N+](=O)[O-] (nonaromatic ring conformer: 384.3739061639201 kcal/mol)

>  <smiles>  (84) 
NC(=O)c1cc2ccc(C(c3nn[nH]n3)C3CC3)cc2n1C(=O)OCC[N+](=O)[O-]

>  <score_type>  (84) 
oracle

>  <origin>  (84) 
adg

>  <m_score__min__energy>  (84) 
-9.0700000000000003

>  <m_primary>  (84) 
energy

$$$$
84:0
     RDKit          3D

 42 44  0  0  0  0  0  0  0  0999 V2000
  139.3980  156.0200  132.9490 C   0  0  0  0  0  0  0  0  0  0  0  0
  138.7370  157.2870  133.3140 N   0  0  0  0  0  0  0  0  0  0  0  0
  139.1260  157.7700  134.6460 C   0  0  0  0  0  0  0  0  0  0  0  0
  140.6080  158.1630  134.7340 C   0  0  0  0  0  0  0  0  0  0  0  0
  141.1630  158.7840  133.5120 N   0  0  0  0  0  0  0  0  0  0  0  0
  142.5460  159.2660  133.5300 C   0  0  0  0  0  0  0  0  0  0  0  0
  142.8440  160.6520  133.7110 C   0  0  0  0  0  0  0  0  0  0  0  0
  144.1650  161.1220  133.7220 C   0  0  0  0  0  0  0  0  0  0  0  0
  145.1890  160.2020  133.5560 C   0  0  0  0  0  0  0  0  0  0  0  0
  146.5510  160.3930  133.5010 C   0  0  0  0  0  0  0  0  0  0  0  0
  147.0940  159.1260  133.3030 C   0  0  0  0  0  0  0  0  0  0  0  0
  148.5470  158.8590  133.2680 C   0  0  0  0  0  0  0  0  0  0  0  0
  149.1600  158.4310  132.0520 N   0  0  0  0  0  0  0  0  0  0  0  0
  149.2620  159.0370  134.2880 O   0  0  0  0  0  0  0  0  0  0  0  0
  146.1050  158.1900  133.2320 N   0  0  0  0  0  0  0  0  0  0  0  0
  146.2400  156.7810  132.9830 C   0  0  0  0  0  0  0  0  0  0  0  0
  147.2720  156.3440  132.4080 O   0  0  0  0  0  0  0  0  0  0  0  0
  145.2070  155.9120  133.3650 O   0  0  0  0  0  0  0  0  0  0  0  0
  144.9150  155.5430  134.6840 C   0  0  0  0  0  0  0  0  0  0  0  0
  143.8010  155.8040  135.2090 O   0  0  0  0  0  0  0  0  0  0  0  0
  145.8790  154.8750  135.4280 O   0  0  0  0  0  0  0  0  0  0  0  0
  144.9450  158.8660  133.3920 C   0  0  0  0  0  0  0  0  0  0  0  0
  143.6390  158.3680  133.3550 C   0  0  0  0  0  0  0  0  0  0  0  0
  140.4230  158.7940  132.2300 C   0  0  0  0  0  0  0  0  0  0  0  0
  138.9560  158.3500  132.3240 C   0  0  0  0  0  0  0  0  0  0  0  0
  139.6810  155.4775  133.8631 H   0  0  0  0  0  0  0  0  0  0  0  0
  138.7067  155.4034  132.3559 H   0  0  0  0  0  0  0  0  0  0  0  0
  140.2993  156.2342  132.3559 H   0  0  0  0  0  0  0  0  0  0  0  0
  137.7070  157.0970  133.3430 H   0  0  0  0  0  0  0  0  0  0  0  0
  138.5148  158.6510  134.8914 H   0  0  0  0  0  0  0  0  0  0  0  0
  138.9622  156.9453  135.3552 H   0  0  0  0  0  0  0  0  0  0  0  0
  140.7231  158.8775  135.5624 H   0  0  0  0  0  0  0  0  0  0  0  0
  141.1661  157.2271  134.8841 H   0  0  0  0  0  0  0  0  0  0  0  0
  142.0182  161.3663  133.8447 H   0  0  0  0  0  0  0  0  0  0  0  0
  144.3830  162.1915  133.8586 H   0  0  0  0  0  0  0  0  0  0  0  0
  147.0951  161.3445  133.5938 H   0  0  0  0  0  0  0  0  0  0  0  0
  148.7990  157.5990  131.5340 H   0  0  0  0  0  0  0  0  0  0  0  0
  143.4571  157.2954  133.1927 H   0  0  0  0  0  0  0  0  0  0  0  0
  140.4444  159.8191  131.8316 H   0  0  0  0  0  0  0  0  0  0  0  0
  140.9246  158.0622  131.5798 H   0  0  0  0  0  0  0  0  0  0  0  0
  138.3443  159.2203  132.6040 H   0  0  0  0  0  0  0  0  0  0  0  0
  138.6725  157.9457  131.3411 H   0  0  0  0  0  0  0  0  0  0  0  0
  1  2  1  0
  2  3  1  0
  3  4  1  0
  4  5  1  0
  5  6  1  0
  6  7  2  0
  7  8  1  0
  8  9  2  0
  9 10  1  0
 10 11  2  0
 11 12  1  0
 12 13  1  0
 12 14  2  0
 11 15  1  0
 15 16  1  0
 16 17  2  0
 16 18  1  0
 18 19  1  0
 19 20  2  0
 19 21  1  0
 15 22  1  0
 22 23  2  0
  5 24  1  0
 24 25  1  0
 25  2  1  0
 23  6  1  0
 22  9  1  0
  1 26  1  0
  1 27  1  0
  1 28  1  0
  2 29  1  0
  3 30  1  0
  3 31  1  0
  4 32  1  0
  4 33  1  0
  7 34  1  0
  8 35  1  0
 10 36  1  0
 13 37  1  0
 23 38  1  0
 24 39  1  0
 24 40  1  0
 25 41  1  0
 25 42  1  0
M  CHG  3   2   1  13  -1  21  -1
M  END
>  <UniqueID>  (85) 
85

>  <SMILES>  (85) 
C[NH+]1CCN(c2ccc3cc(C([NH-])=O)n(C(=O)OC(=O)[O-])c3c2)CC1

>  <Energy>  (85) 
93.82082962175996

>  <Genealogy>  (85) 
C[NH+]1CCN(c2ccc3cc(C([NH-])=O)n(C(=O)OC(=O)[O-])c3c2)CC1 (protonated)
C[NH+]1CCN(c2ccc3cc(C([NH-])=O)n(C(=O)OC(=O)[O-])c3c2)CC1 (3D coordinates assigned)
C[NH+]1CCN(c2ccc3cc(C([NH-])=O)n(C(=O)OC(=O)[O-])c3c2)CC1 (nonaromatic ring conformer: 93.82082962175996 kcal/mol)

>  <smiles>  (85) 
CN1CCN(c2ccc3cc(C(N)=O)n(C(=O)OC(=O)O)c3c2)CC1

>  <score_type>  (85) 
oracle

>  <origin>  (85) 
adg

>  <m_score__min__energy>  (85) 
-6.3899999999999997

>  <m_primary>  (85) 
energy

$$$$
85:0
     RDKit          3D

 48 50  0  0  0  0  0  0  0  0999 V2000
  139.4480  148.8800  129.6000 C   0  0  0  0  0  0  0  0  0  0  0  0
  140.6210  148.8240  130.3810 O   0  0  0  0  0  0  0  0  0  0  0  0
  140.3060  148.8120  131.7630 C   0  0  2  0  0  0  0  0  0  0  0  0
  139.1740  149.8110  132.0210 C   0  0  0  0  0  0  0  0  0  0  0  0
  141.5520  149.2030  132.5730 C   0  0  0  0  0  0  0  0  0  0  0  0
  142.1630  150.3740  132.0270 O   0  0  0  0  0  0  0  0  0  0  0  0
  142.3350  151.6020  132.6880 C   0  0  0  0  0  0  0  0  0  0  0  0
  143.6020  152.1300  133.0090 C   0  0  0  0  0  0  0  0  0  0  0  0
  143.7080  153.3580  133.6680 C   0  0  0  0  0  0  0  0  0  0  0  0
  142.5550  154.0910  133.9970 C   0  0  0  0  0  0  0  0  0  0  0  0
  142.6410  155.3470  134.6900 N   0  0  0  0  0  0  0  0  0  0  0  0
  143.4220  156.4690  134.2430 C   0  0  0  0  0  0  0  0  0  0  0  0
  142.7610  157.6580  133.8520 C   0  0  0  0  0  0  0  0  0  0  0  0
  143.4890  158.7650  133.3850 C   0  0  0  0  0  0  0  0  0  0  0  0
  144.8720  158.6480  133.3000 C   0  0  0  0  0  0  0  0  0  0  0  0
  145.8120  159.5670  132.8970 C   0  0  0  0  0  0  0  0  0  0  0  0
  147.0360  158.9140  133.0060 C   0  0  0  0  0  0  0  0  0  0  0  0
  148.3160  159.5200  132.5920 C   0  0  0  0  0  0  0  0  0  0  0  0
  149.5660  158.9310  132.9540 N   0  0  0  0  0  0  0  0  0  0  0  0
  148.3080  160.5360  131.8490 O   0  0  0  0  0  0  0  0  0  0  0  0
  146.8660  157.6430  133.4720 N   0  0  0  0  0  0  0  0  0  0  0  0
  147.8940  156.7050  133.8350 C   0  0  0  0  0  0  0  0  0  0  0  0
  148.1000  156.4180  135.0430 O   0  0  0  0  0  0  0  0  0  0  0  0
  148.6870  156.1200  132.8540 O   0  0  0  0  0  0  0  0  0  0  0  0
  145.5310  157.4940  133.6420 C   0  0  0  0  0  0  0  0  0  0  0  0
  144.8300  156.3820  134.1260 C   0  0  0  0  0  0  0  0  0  0  0  0
  141.2960  153.5560  133.6920 C   0  0  0  0  0  0  0  0  0  0  0  0
  141.1900  152.3280  133.0330 C   0  0  0  0  0  0  0  0  0  0  0  0
  138.5694  148.9220  130.2605 H   0  0  0  0  0  0  0  0  0  0  0  0
  139.4727  149.7780  128.9652 H   0  0  0  0  0  0  0  0  0  0  0  0
  139.3870  147.9837  128.9652 H   0  0  0  0  0  0  0  0  0  0  0  0
  139.9829  147.8063  132.0701 H   0  0  0  0  0  0  0  0  0  0  0  0
  139.0340  149.9346  133.1050 H   0  0  0  0  0  0  0  0  0  0  0  0
  139.4318  150.7814  131.5716 H   0  0  0  0  0  0  0  0  0  0  0  0
  138.2432  149.4345  131.5716 H   0  0  0  0  0  0  0  0  0  0  0  0
  141.2581  149.4013  133.6143 H   0  0  0  0  0  0  0  0  0  0  0  0
  142.2749  148.3749  132.5313 H   0  0  0  0  0  0  0  0  0  0  0  0
  144.5115  151.5730  132.7396 H   0  0  0  0  0  0  0  0  0  0  0  0
  144.7003  153.7533  133.9308 H   0  0  0  0  0  0  0  0  0  0  0  0
  142.0840  155.4580  135.5670 H   0  0  0  0  0  0  0  0  0  0  0  0
  141.6643  157.7159  133.9146 H   0  0  0  0  0  0  0  0  0  0  0  0
  142.9803  159.6963  133.0953 H   0  0  0  0  0  0  0  0  0  0  0  0
  145.6343  160.5989  132.5601 H   0  0  0  0  0  0  0  0  0  0  0  0
  149.6090  157.9910  133.4080 H   0  0  0  0  0  0  0  0  0  0  0  0
  150.4610  159.3920  132.6790 H   0  0  0  0  0  0  0  0  0  0  0  0
  145.3619  155.4616  134.4089 H   0  0  0  0  0  0  0  0  0  0  0  0
  140.3857  154.1059  133.9730 H   0  0  0  0  0  0  0  0  0  0  0  0
  140.1961  151.9283  132.7831 H   0  0  0  0  0  0  0  0  0  0  0  0
  1  2  1  0
  2  3  1  0
  3  4  1  0
  3  5  1  0
  5  6  1  0
  6  7  1  0
  7  8  2  0
  8  9  1  0
  9 10  2  0
 10 11  1  0
 11 12  1  0
 12 13  2  0
 13 14  1  0
 14 15  2  0
 15 16  1  0
 16 17  2  0
 17 18  1  0
 18 19  1  0
 18 20  2  0
 17 21  1  0
 21 22  1  0
 22 23  2  0
 22 24  1  0
 21 25  1  0
 25 26  2  0
 10 27  1  0
 27 28  2  0
 28  7  1  0
 26 12  1  0
 25 15  1  0
  1 29  1  0
  1 30  1  0
  1 31  1  0
  3 32  1  1
  4 33  1  0
  4 34  1  0
  4 35  1  0
  5 36  1  0
  5 37  1  0
  8 38  1  0
  9 39  1  0
 11 40  1  0
 13 41  1  0
 14 42  1  0
 16 43  1  0
 19 44  1  0
 19 45  1  0
 26 46  1  0
 27 47  1  0
 28 48  1  0
M  CHG  1  24  -1
M  END
>  <UniqueID>  (86) 
86

>  <SMILES>  (86) 
CO[C@H](C)COc1ccc(Nc2ccc3cc(C(N)=O)n(C(=O)[O-])c3c2)cc1

>  <Energy>  (86) 
94.87988470686535

>  <Genealogy>  (86) 
CO[C@H](C)COc1ccc(Nc2ccc3cc(C(N)=O)n(C(=O)[O-])c3c2)cc1 (protonated)
CO[C@H](C)COc1ccc(Nc2ccc3cc(C(N)=O)n(C(=O)[O-])c3c2)cc1 (3D coordinates assigned)
CO[C@H](C)COc1ccc(Nc2ccc3cc(C(N)=O)n(C(=O)[O-])c3c2)cc1 (optimized conformer: 94.87988470686535 kcal/mol)

>  <smiles>  (86) 
CO[C@H](C)COc1ccc(Nc2ccc3cc(C(N)=O)n(C(=O)O)c3c2)cc1

>  <score_type>  (86) 
oracle

>  <origin>  (86) 
adg

>  <m_score__min__energy>  (86) 
-7.8399999999999999

>  <m_primary>  (86) 
energy

$$$$
86:0
     RDKit          3D

 34 35  0  0  0  0  0  0  0  0999 V2000
  140.4190  159.3890  132.4270 C   0  0  0  0  0  0  0  0  0  0  0  0
  139.9950  159.1610  133.7660 O   0  0  0  0  0  0  0  0  0  0  0  0
  140.8880  159.1100  134.8390 C   0  0  0  0  0  0  0  0  0  0  0  0
  141.0090  160.0900  135.6240 O   0  0  0  0  0  0  0  0  0  0  0  0
  141.7510  157.9030  135.0250 C   0  0  0  0  0  0  0  0  0  0  0  0
  143.1250  158.2510  134.8790 O   0  0  0  0  0  0  0  0  0  0  0  0
  143.7740  158.3100  133.6400 C   0  0  0  0  0  0  0  0  0  0  0  0
  143.2410  157.8040  132.6150 O   0  0  0  0  0  0  0  0  0  0  0  0
  145.0620  158.9330  133.5410 N   0  0  0  0  0  0  0  0  0  0  0  0
  145.3490  160.2670  133.5480 C   0  0  0  0  0  0  0  0  0  0  0  0
  144.3920  161.3590  133.8220 C   0  0  0  0  0  0  0  0  0  0  0  0
  142.9860  161.1350  133.7650 N   0  0  0  0  0  0  0  0  0  0  0  0
  144.8220  162.4950  134.1570 O   0  0  0  0  0  0  0  0  0  0  0  0
  146.7120  160.4730  133.3440 C   0  0  0  0  0  0  0  0  0  0  0  0
  147.2580  159.2150  133.2220 C   0  0  0  0  0  0  0  0  0  0  0  0
  148.5760  158.8290  132.9990 C   0  0  0  0  0  0  0  0  0  0  0  0
  148.8500  157.4550  132.8900 C   0  0  0  0  0  0  0  0  0  0  0  0
  147.8090  156.5000  132.9980 C   0  0  0  0  0  0  0  0  0  0  0  0
  148.1220  155.0370  132.8630 C   0  0  0  0  0  0  0  0  0  0  0  0
  147.8150  154.3840  134.0420 F   0  0  0  0  0  0  0  0  0  0  0  0
  149.4660  154.8730  132.5860 F   0  0  0  0  0  0  0  0  0  0  0  0
  146.4820  156.9300  133.2230 C   0  0  0  0  0  0  0  0  0  0  0  0
  146.2420  158.3040  133.3450 C   0  0  0  0  0  0  0  0  0  0  0  0
  141.3878  159.9100  132.4329 H   0  0  0  0  0  0  0  0  0  0  0  0
  140.5239  158.4256  131.9065 H   0  0  0  0  0  0  0  0  0  0  0  0
  139.6731  160.0077  131.9065 H   0  0  0  0  0  0  0  0  0  0  0  0
  141.5860  157.4903  136.0312 H   0  0  0  0  0  0  0  0  0  0  0  0
  141.4884  157.1542  134.2632 H   0  0  0  0  0  0  0  0  0  0  0  0
  142.5680  160.2410  134.1060 H   0  0  0  0  0  0  0  0  0  0  0  0
  147.2399  161.4366  133.2915 H   0  0  0  0  0  0  0  0  0  0  0  0
  149.3786  159.5761  132.9107 H   0  0  0  0  0  0  0  0  0  0  0  0
  149.8829  157.1176  132.7191 H   0  0  0  0  0  0  0  0  0  0  0  0
  147.5232  154.6141  132.0429 H   0  0  0  0  0  0  0  0  0  0  0  0
  145.6590  156.2043  133.3003 H   0  0  0  0  0  0  0  0  0  0  0  0
  1  2  1  0
  2  3  1  0
  3  4  2  0
  3  5  1  0
  5  6  1  0
  6  7  1  0
  7  8  2  0
  7  9  1  0
  9 10  1  0
 10 11  1  0
 11 12  1  0
 11 13  2  0
 10 14  2  0
 14 15  1  0
 15 16  2  0
 16 17  1  0
 17 18  2  0
 18 19  1  0
 19 20  1  0
 19 21  1  0
 18 22  1  0
 22 23  2  0
 23  9  1  0
 23 15  1  0
  1 24  1  0
  1 25  1  0
  1 26  1  0
  5 27  1  0
  5 28  1  0
 12 29  1  0
 14 30  1  0
 16 31  1  0
 17 32  1  0
 19 33  1  0
 22 34  1  0
M  CHG  1  12  -1
M  END
>  <UniqueID>  (87) 
87

>  <SMILES>  (87) 
COC(=O)COC(=O)n1c(C([NH-])=O)cc2ccc(C(F)F)cc21

>  <Energy>  (87) 
68.13329932741483

>  <Genealogy>  (87) 
COC(=O)COC(=O)n1c(C([NH-])=O)cc2ccc(C(F)F)cc21 (protonated)
COC(=O)COC(=O)n1c(C([NH-])=O)cc2ccc(C(F)F)cc21 (3D coordinates assigned)
COC(=O)COC(=O)n1c(C([NH-])=O)cc2ccc(C(F)F)cc21 (optimized conformer: 68.13329932741483 kcal/mol)

>  <smiles>  (87) 
COC(=O)COC(=O)n1c(C(N)=O)cc2ccc(C(F)F)cc21

>  <score_type>  (87) 
oracle

>  <origin>  (87) 
adg

>  <m_score__min__energy>  (87) 
-5.1399999999999997

>  <m_primary>  (87) 
energy

$$$$
87:0
     RDKit          3D

 50 51  0  0  0  0  0  0  0  0999 V2000
  151.1560  149.2040  129.1400 C   0  0  0  0  0  0  0  0  0  0  0  0
  151.7390  150.1040  130.0560 O   0  0  0  0  0  0  0  0  0  0  0  0
  150.8570  150.3520  131.1340 C   0  0  0  0  0  0  0  0  0  0  0  0
  149.6250  151.1130  130.6410 C   0  0  0  0  0  0  0  0  0  0  0  0
  149.4750  152.3410  131.3510 O   0  0  0  0  0  0  0  0  0  0  0  0
  149.3330  152.4150  132.7420 C   0  0  0  0  0  0  0  0  0  0  0  0
  149.5140  151.3890  133.4550 O   0  0  0  0  0  0  0  0  0  0  0  0
  148.8570  153.6960  133.3770 C   0  0  2  0  0  0  0  0  0  0  0  0
  147.7320  153.4860  134.3980 C   0  0  0  0  0  0  0  0  0  0  0  0
  148.4830  154.7090  132.3780 N   0  0  0  0  0  0  0  0  0  0  0  0
  148.0430  156.0630  132.6280 C   0  0  0  0  0  0  0  0  0  0  0  0
  149.0110  157.0990  132.6000 C   0  0  0  0  0  0  0  0  0  0  0  0
  148.6470  158.4370  132.8070 C   0  0  0  0  0  0  0  0  0  0  0  0
  147.3080  158.7170  133.0530 C   0  0  0  0  0  0  0  0  0  0  0  0
  146.6970  159.9200  133.3100 C   0  0  0  0  0  0  0  0  0  0  0  0
  145.3550  159.6140  133.5070 C   0  0  0  0  0  0  0  0  0  0  0  0
  144.3170  160.6430  133.7260 C   0  0  0  0  0  0  0  0  0  0  0  0
  142.9560  160.3930  133.3830 N   0  0  0  0  0  0  0  0  0  0  0  0
  144.6440  161.7780  134.1650 O   0  0  0  0  0  0  0  0  0  0  0  0
  145.1420  158.2720  133.3930 N   0  0  0  0  0  0  0  0  0  0  0  0
  143.9360  157.5550  133.7170 C   0  0  0  0  0  0  0  0  0  0  0  0
  143.8970  156.8270  134.7470 O   0  0  0  0  0  0  0  0  0  0  0  0
  142.8200  157.6330  132.8800 O   0  0  0  0  0  0  0  0  0  0  0  0
  141.5200  157.2310  133.3040 C   0  0  0  0  0  0  0  0  0  0  0  0
  140.5230  158.3540  133.0670 C   0  0  0  0  0  0  0  0  0  0  0  0
  140.8330  159.0140  131.8700 O   0  0  0  0  0  0  0  0  0  0  0  0
  146.3510  157.7360  133.0960 C   0  0  0  0  0  0  0  0  0  0  0  0
  146.6870  156.3900  132.8850 C   0  0  0  0  0  0  0  0  0  0  0  0
  150.6382  148.4047  129.6904 H   0  0  0  0  0  0  0  0  0  0  0  0
  150.4337  149.7410  128.5076 H   0  0  0  0  0  0  0  0  0  0  0  0
  151.9414  148.7644  128.5076 H   0  0  0  0  0  0  0  0  0  0  0  0
  150.5413  149.3943  131.5734 H   0  0  0  0  0  0  0  0  0  0  0  0
  151.3756  150.9585  131.8912 H   0  0  0  0  0  0  0  0  0  0  0  0
  149.7382  151.3275  129.5681 H   0  0  0  0  0  0  0  0  0  0  0  0
  148.7330  150.4928  130.8136 H   0  0  0  0  0  0  0  0  0  0  0  0
  149.7223  154.0803  133.9369 H   0  0  0  0  0  0  0  0  0  0  0  0
  148.1417  153.5625  135.4160 H   0  0  0  0  0  0  0  0  0  0  0  0
  146.9589  154.2553  134.2552 H   0  0  0  0  0  0  0  0  0  0  0  0
  147.2885  152.4895  134.2552 H   0  0  0  0  0  0  0  0  0  0  0  0
  148.4530  154.3740  131.3870 H   0  0  0  0  0  0  0  0  0  0  0  0
  150.0656  156.8485  132.4127 H   0  0  0  0  0  0  0  0  0  0  0  0
  149.3978  159.2403  132.7757 H   0  0  0  0  0  0  0  0  0  0  0  0
  147.1685  160.9130  133.3512 H   0  0  0  0  0  0  0  0  0  0  0  0
  142.7090  159.7680  132.5830 H   0  0  0  0  0  0  0  0  0  0  0  0
  141.2099  156.3428  132.7341 H   0  0  0  0  0  0  0  0  0  0  0  0
  141.5484  156.9953  134.3781 H   0  0  0  0  0  0  0  0  0  0  0  0
  139.5082  157.9346  133.0015 H   0  0  0  0  0  0  0  0  0  0  0  0
  140.5732  159.0688  133.9016 H   0  0  0  0  0  0  0  0  0  0  0  0
  141.7950  159.2510  131.9280 H   0  0  0  0  0  0  0  0  0  0  0  0
  145.9160  155.6061  132.9182 H   0  0  0  0  0  0  0  0  0  0  0  0
  1  2  1  0
  2  3  1  0
  3  4  1  0
  4  5  1  0
  5  6  1  0
  6  7  2  0
  6  8  1  0
  8  9  1  0
  8 10  1  0
 10 11  1  0
 11 12  2  0
 12 13  1  0
 13 14  2  0
 14 15  1  0
 15 16  2  0
 16 17  1  0
 17 18  1  0
 17 19  2  0
 16 20  1  0
 20 21  1  0
 21 22  2  0
 21 23  1  0
 23 24  1  0
 24 25  1  0
 25 26  1  0
 20 27  1  0
 27 28  2  0
 28 11  1  0
 27 14  1  0
  1 29  1  0
  1 30  1  0
  1 31  1  0
  3 32  1  0
  3 33  1  0
  4 34  1  0
  4 35  1  0
  8 36  1  1
  9 37  1  0
  9 38  1  0
  9 39  1  0
 10 40  1  0
 12 41  1  0
 13 42  1  0
 15 43  1  0
 18 44  1  0
 24 45  1  0
 24 46  1  0
 25 47  1  0
 25 48  1  0
 26 49  1  0
 28 50  1  0
M  CHG  1  18  -1
M  END
>  <UniqueID>  (88) 
88

>  <SMILES>  (88) 
COCCOC(=O)[C@H](C)Nc1ccc2cc(C([NH-])=O)n(C(=O)OCCO)c2c1

>  <Energy>  (88) 
82.43137990977776

>  <Genealogy>  (88) 
COCCOC(=O)[C@H](C)Nc1ccc2cc(C([NH-])=O)n(C(=O)OCCO)c2c1 (protonated)
COCCOC(=O)[C@H](C)Nc1ccc2cc(C([NH-])=O)n(C(=O)OCCO)c2c1 (3D coordinates assigned)
COCCOC(=O)[C@H](C)Nc1ccc2cc(C([NH-])=O)n(C(=O)OCCO)c2c1 (optimized conformer: 82.43137990977776 kcal/mol)

>  <smiles>  (88) 
COCCOC(=O)[C@H](C)Nc1ccc2cc(C(N)=O)n(C(=O)OCCO)c2c1

>  <score_type>  (88) 
oracle

>  <origin>  (88) 
adg

>  <m_score__min__energy>  (88) 
-6.2800000000000002

>  <m_primary>  (88) 
energy

$$$$
88:0
     RDKit          3D

 28 29  0  0  0  0  0  0  0  0999 V2000
  149.0690  160.0710  130.6540 C   0  0  0  0  0  0  0  0  0  0  0  0
  148.8510  158.9960  131.4080 C   0  0  0  0  0  0  0  0  0  0  0  0
  148.1820  159.0700  132.7210 C   0  0  0  0  0  0  0  0  0  0  0  0
  148.5570  159.9100  133.5830 O   0  0  0  0  0  0  0  0  0  0  0  0
  147.0930  158.1850  133.0230 N   0  0  0  0  0  0  0  0  0  0  0  0
  145.8300  158.5210  133.4100 C   0  0  0  0  0  0  0  0  0  0  0  0
  145.2770  159.8910  133.4750 C   0  0  0  0  0  0  0  0  0  0  0  0
  146.1210  161.0120  133.7270 N   0  0  0  0  0  0  0  0  0  0  0  0
  144.0480  160.0770  133.2720 O   0  0  0  0  0  0  0  0  0  0  0  0
  145.0850  157.3760  133.6860 C   0  0  0  0  0  0  0  0  0  0  0  0
  145.9380  156.3200  133.4550 C   0  0  0  0  0  0  0  0  0  0  0  0
  145.7220  154.9510  133.5780 C   0  0  0  0  0  0  0  0  0  0  0  0
  146.7950  154.0880  133.2970 C   0  0  0  0  0  0  0  0  0  0  0  0
  148.0650  154.6040  132.9280 C   0  0  0  0  0  0  0  0  0  0  0  0
  149.1970  153.6660  132.5940 C   0  0  0  0  0  0  0  0  0  0  0  0
  149.4350  152.8390  133.6750 F   0  0  0  0  0  0  0  0  0  0  0  0
  148.8790  152.8880  131.4930 F   0  0  0  0  0  0  0  0  0  0  0  0
  150.3500  154.3730  132.3040 F   0  0  0  0  0  0  0  0  0  0  0  0
  148.2360  156.0010  132.7940 C   0  0  0  0  0  0  0  0  0  0  0  0
  147.1440  156.8350  133.0600 C   0  0  0  0  0  0  0  0  0  0  0  0
  149.5719  159.9677  129.6812 H   0  0  0  0  0  0  0  0  0  0  0  0
  148.7463  161.0627  131.0037 H   0  0  0  0  0  0  0  0  0  0  0  0
  149.1824  158.0145  131.0380 H   0  0  0  0  0  0  0  0  0  0  0  0
  146.8990  161.2560  133.0750 H   0  0  0  0  0  0  0  0  0  0  0  0
  144.0375  157.3264  134.0180 H   0  0  0  0  0  0  0  0  0  0  0  0
  144.7423  154.5566  133.8855 H   0  0  0  0  0  0  0  0  0  0  0  0
  146.6490  152.9998  133.3638 H   0  0  0  0  0  0  0  0  0  0  0  0
  149.2047  156.4226  132.4878 H   0  0  0  0  0  0  0  0  0  0  0  0
  1  2  2  0
  2  3  1  0
  3  4  2  0
  3  5  1  0
  5  6  1  0
  6  7  1  0
  7  8  1  0
  7  9  2  0
  6 10  2  0
 10 11  1  0
 11 12  2  0
 12 13  1  0
 13 14  2  0
 14 15  1  0
 15 16  1  0
 15 17  1  0
 15 18  1  0
 14 19  1  0
 19 20  2  0
 20  5  1  0
 20 11  1  0
  1 21  1  0
  1 22  1  0
  2 23  1  0
  8 24  1  0
 10 25  1  0
 12 26  1  0
 13 27  1  0
 19 28  1  0
M  CHG  1   8  -1
M  END
>  <UniqueID>  (89) 
89

>  <SMILES>  (89) 
C=CC(=O)n1c(C([NH-])=O)cc2ccc(C(F)(F)F)cc21

>  <Energy>  (89) 
67.5185806491328

>  <Genealogy>  (89) 
C=CC(=O)n1c(C([NH-])=O)cc2ccc(C(F)(F)F)cc21 (protonated)
C=CC(=O)n1c(C([NH-])=O)cc2ccc(C(F)(F)F)cc21 (3D coordinates assigned)
C=CC(=O)n1c(C([NH-])=O)cc2ccc(C(F)(F)F)cc21 (optimized conformer: 67.5185806491328 kcal/mol)

>  <smiles>  (89) 
C=CC(=O)n1c(C(N)=O)cc2ccc(C(F)(F)F)cc21

>  <score_type>  (89) 
oracle

>  <origin>  (89) 
adg

>  <m_score__min__energy>  (89) 
-5.9000000000000004

>  <m_primary>  (89) 
energy

$$$$
89:0
     RDKit          3D

 39 40  0  0  0  0  0  0  0  0999 V2000
  139.7370  150.1070  132.0080 C   0  0  0  0  0  0  0  0  0  0  0  0
  141.1990  149.9590  131.9610 N   0  0  0  0  0  0  0  0  0  0  0  0
  141.5860  148.6850  132.5940 C   0  0  0  0  0  0  0  0  0  0  0  0
  141.8470  151.1030  132.6390 C   0  0  0  0  0  0  0  0  0  0  0  0
  140.8720  152.2260  132.8450 C   0  0  0  0  0  0  0  0  0  0  0  0
  141.2920  153.4670  133.1070 C   0  0  0  0  0  0  0  0  0  0  0  0
  140.3600  154.5770  133.3650 C   0  0  0  0  0  0  0  0  0  0  0  0
  139.1400  154.4700  133.0650 O   0  0  0  0  0  0  0  0  0  0  0  0
  140.8400  155.7850  133.9760 N   0  0  0  0  0  0  0  0  0  0  0  0
  141.7720  155.9080  134.9620 C   0  0  0  0  0  0  0  0  0  0  0  0
  142.3950  154.7930  135.7050 C   0  0  0  0  0  0  0  0  0  0  0  0
  143.7530  154.8940  136.1310 N   0  0  0  0  0  0  0  0  0  0  0  0
  141.7350  153.7580  135.9840 O   0  0  0  0  0  0  0  0  0  0  0  0
  142.0300  157.2530  135.2210 C   0  0  0  0  0  0  0  0  0  0  0  0
  141.2240  157.9550  134.3510 C   0  0  0  0  0  0  0  0  0  0  0  0
  141.1120  159.3260  134.1410 C   0  0  0  0  0  0  0  0  0  0  0  0
  140.2470  159.7670  133.1260 C   0  0  0  0  0  0  0  0  0  0  0  0
  139.4980  158.8380  132.3540 C   0  0  0  0  0  0  0  0  0  0  0  0
  138.6080  159.3000  131.2290 C   0  0  0  0  0  0  0  0  0  0  0  0
  138.7370  160.6610  131.0150 F   0  0  0  0  0  0  0  0  0  0  0  0
  137.2830  159.0320  131.5270 F   0  0  0  0  0  0  0  0  0  0  0  0
  138.9530  158.6310  130.0710 F   0  0  0  0  0  0  0  0  0  0  0  0
  139.6550  157.4530  132.5890 C   0  0  0  0  0  0  0  0  0  0  0  0
  140.5160  157.0440  133.6120 C   0  0  0  0  0  0  0  0  0  0  0  0
  139.4054  150.1406  133.0563 H   0  0  0  0  0  0  0  0  0  0  0  0
  139.4463  151.0392  131.5014 H   0  0  0  0  0  0  0  0  0  0  0  0
  139.2654  149.2520  131.5014 H   0  0  0  0  0  0  0  0  0  0  0  0
  141.5528  148.7942  133.6881 H   0  0  0  0  0  0  0  0  0  0  0  0
  140.8876  147.8941  132.2831 H   0  0  0  0  0  0  0  0  0  0  0  0
  142.6063  148.4162  132.2831 H   0  0  0  0  0  0  0  0  0  0  0  0
  142.2283  150.7733  133.6167 H   0  0  0  0  0  0  0  0  0  0  0  0
  142.6715  151.4649  132.0072 H   0  0  0  0  0  0  0  0  0  0  0  0
  139.7928  152.0235  132.7791 H   0  0  0  0  0  0  0  0  0  0  0  0
  142.3735  153.6666  133.1308 H   0  0  0  0  0  0  0  0  0  0  0  0
  143.9900  155.2180  137.0950 H   0  0  0  0  0  0  0  0  0  0  0  0
  142.7290  157.6667  135.9628 H   0  0  0  0  0  0  0  0  0  0  0  0
  141.6829  160.0419  134.7507 H   0  0  0  0  0  0  0  0  0  0  0  0
  140.1481  160.8442  132.9262 H   0  0  0  0  0  0  0  0  0  0  0  0
  139.1124  156.7140  131.9811 H   0  0  0  0  0  0  0  0  0  0  0  0
  1  2  1  0
  2  3  1  0
  2  4  1  0
  4  5  1  0
  5  6  2  3
  6  7  1  0
  7  8  2  0
  7  9  1  0
  9 10  1  0
 10 11  1  0
 11 12  1  0
 11 13  2  0
 10 14  2  0
 14 15  1  0
 15 16  2  0
 16 17  1  0
 17 18  2  0
 18 19  1  0
 19 20  1  0
 19 21  1  0
 19 22  1  0
 18 23  1  0
 23 24  2  0
 24  9  1  0
 24 15  1  0
  1 25  1  0
  1 26  1  0
  1 27  1  0
  3 28  1  0
  3 29  1  0
  3 30  1  0
  4 31  1  0
  4 32  1  0
  5 33  1  0
  6 34  1  0
 12 35  1  0
 14 36  1  0
 16 37  1  0
 17 38  1  0
 23 39  1  0
M  CHG  1  12  -1
M  END
>  <UniqueID>  (90) 
90

>  <SMILES>  (90) 
CN(C)CC=CC(=O)n1c(C([NH-])=O)cc2ccc(C(F)(F)F)cc21

>  <Energy>  (90) 
75.66056677471111

>  <Genealogy>  (90) 
CN(C)CC=CC(=O)n1c(C([NH-])=O)cc2ccc(C(F)(F)F)cc21 (protonated)
CN(C)CC=CC(=O)n1c(C([NH-])=O)cc2ccc(C(F)(F)F)cc21 (3D coordinates assigned)
CN(C)CC=CC(=O)n1c(C([NH-])=O)cc2ccc(C(F)(F)F)cc21 (optimized conformer: 75.66056677471111 kcal/mol)

>  <smiles>  (90) 
CN(C)CC=CC(=O)n1c(C(N)=O)cc2ccc(C(F)(F)F)cc21

>  <score_type>  (90) 
oracle

>  <origin>  (90) 
adg

>  <m_score__min__energy>  (90) 
-6.7800000000000002

>  <m_primary>  (90) 
energy

$$$$
90:0
     RDKit          3D

 36 37  0  0  0  0  0  0  0  0999 V2000
  142.3620  157.7180  133.3260 C   0  0  0  0  0  0  0  0  0  0  0  0
  142.6070  159.1700  133.7690 C   0  0  0  0  0  0  0  0  0  0  0  0
  142.1980  159.3650  135.2380 C   0  0  0  0  0  0  0  0  0  0  0  0
  141.8890  160.0550  132.9450 O   0  0  0  0  0  0  0  0  0  0  0  0
  144.0380  159.4720  133.6260 C   0  0  0  0  0  0  0  0  0  0  0  0
  145.2140  159.7030  133.5020 C   0  0  0  0  0  0  0  0  0  0  0  0
  146.6240  159.9530  133.3640 C   0  0  0  0  0  0  0  0  0  0  0  0
  147.0700  161.1050  133.6090 O   0  0  0  0  0  0  0  0  0  0  0  0
  147.5150  158.9010  132.9560 N   0  0  0  0  0  0  0  0  0  0  0  0
  148.6440  159.0150  132.1990 C   0  0  0  0  0  0  0  0  0  0  0  0
  149.1240  160.2470  131.5360 C   0  0  0  0  0  0  0  0  0  0  0  0
  148.1860  161.2250  131.0910 N   0  0  0  0  0  0  0  0  0  0  0  0
  150.3550  160.4620  131.3870 O   0  0  0  0  0  0  0  0  0  0  0  0
  149.2660  157.7760  132.0600 C   0  0  0  0  0  0  0  0  0  0  0  0
  148.4770  156.8910  132.7560 C   0  0  0  0  0  0  0  0  0  0  0  0
  148.6360  155.5250  132.9650 C   0  0  0  0  0  0  0  0  0  0  0  0
  147.6810  154.8630  133.7540 C   0  0  0  0  0  0  0  0  0  0  0  0
  146.5850  155.5690  134.3120 C   0  0  0  0  0  0  0  0  0  0  0  0
  145.5980  154.8620  135.2070 C   0  0  0  0  0  0  0  0  0  0  0  0
  146.2010  154.4860  136.3950 F   0  0  0  0  0  0  0  0  0  0  0  0
  145.1290  153.7330  134.5630 F   0  0  0  0  0  0  0  0  0  0  0  0
  144.5290  155.6890  135.5060 F   0  0  0  0  0  0  0  0  0  0  0  0
  146.4750  156.9630  134.1000 C   0  0  0  0  0  0  0  0  0  0  0  0
  147.4280  157.5930  133.2900 C   0  0  0  0  0  0  0  0  0  0  0  0
  142.2539  157.0772  134.2135 H   0  0  0  0  0  0  0  0  0  0  0  0
  141.4428  157.6685  132.7238 H   0  0  0  0  0  0  0  0  0  0  0  0
  143.2141  157.3696  132.7238 H   0  0  0  0  0  0  0  0  0  0  0  0
  142.9950  158.9850  135.8941 H   0  0  0  0  0  0  0  0  0  0  0  0
  142.0397  160.4355  135.4355 H   0  0  0  0  0  0  0  0  0  0  0  0
  141.2666  158.8141  135.4355 H   0  0  0  0  0  0  0  0  0  0  0  0
  141.9950  159.7490  132.0050 H   0  0  0  0  0  0  0  0  0  0  0  0
  147.8020  161.9380  131.7480 H   0  0  0  0  0  0  0  0  0  0  0  0
  150.1922  157.5531  131.5099 H   0  0  0  0  0  0  0  0  0  0  0  0
  149.4842  154.9796  132.5255 H   0  0  0  0  0  0  0  0  0  0  0  0
  147.7845  153.7840  133.9413 H   0  0  0  0  0  0  0  0  0  0  0  0
  145.6593  157.5393  134.5610 H   0  0  0  0  0  0  0  0  0  0  0  0
  1  2  1  0
  2  3  1  0
  2  4  1  0
  2  5  1  0
  5  6  3  0
  6  7  1  0
  7  8  2  0
  7  9  1  0
  9 10  1  0
 10 11  1  0
 11 12  1  0
 11 13  2  0
 10 14  2  0
 14 15  1  0
 15 16  2  0
 16 17  1  0
 17 18  2  0
 18 19  1  0
 19 20  1  0
 19 21  1  0
 19 22  1  0
 18 23  1  0
 23 24  2  0
 24  9  1  0
 24 15  1  0
  1 25  1  0
  1 26  1  0
  1 27  1  0
  3 28  1  0
  3 29  1  0
  3 30  1  0
  4 31  1  0
 12 32  1  0
 14 33  1  0
 16 34  1  0
 17 35  1  0
 23 36  1  0
M  CHG  1  12  -1
M  END
>  <UniqueID>  (91) 
91

>  <SMILES>  (91) 
CC(C)(O)C#CC(=O)n1c(C([NH-])=O)cc2ccc(C(F)(F)F)cc21

>  <Energy>  (91) 
67.63096256373937

>  <Genealogy>  (91) 
CC(C)(O)C#CC(=O)n1c(C([NH-])=O)cc2ccc(C(F)(F)F)cc21 (protonated)
CC(C)(O)C#CC(=O)n1c(C([NH-])=O)cc2ccc(C(F)(F)F)cc21 (3D coordinates assigned)
CC(C)(O)C#CC(=O)n1c(C([NH-])=O)cc2ccc(C(F)(F)F)cc21 (optimized conformer: 67.63096256373937 kcal/mol)

>  <smiles>  (91) 
CC(C)(O)C#CC(=O)n1c(C(N)=O)cc2ccc(C(F)(F)F)cc21

>  <score_type>  (91) 
oracle

>  <origin>  (91) 
adg

>  <m_score__min__energy>  (91) 
-7.29

>  <m_primary>  (91) 
energy

$$$$
91:0
     RDKit          3D

 45 48  0  0  0  0  0  0  0  0999 V2000
  144.1430  153.4170  137.7550 N   0  0  0  0  0  0  0  0  0  0  0  0
  143.6720  153.7350  136.4470 C   0  0  0  0  0  0  0  0  0  0  0  0
  142.8590  152.9590  135.8820 O   0  0  0  0  0  0  0  0  0  0  0  0
  144.1930  154.9030  135.7060 C   0  0  0  0  0  0  0  0  0  0  0  0
  143.3740  155.8940  135.1750 C   0  0  0  0  0  0  0  0  0  0  0  0
  144.2200  156.7300  134.4810 C   0  0  0  0  0  0  0  0  0  0  0  0
  143.9370  157.8760  133.7530 C   0  0  0  0  0  0  0  0  0  0  0  0
  145.0040  158.5530  133.1440 C   0  0  0  0  0  0  0  0  0  0  0  0
  146.3480  158.0900  133.2720 C   0  0  0  0  0  0  0  0  0  0  0  0
  147.4500  158.7990  132.6280 N   0  0  0  0  0  0  0  0  0  0  0  0
  147.4470  160.2820  132.5890 C   0  0  0  0  0  0  0  0  0  0  0  0
  148.6730  160.8550  131.8500 C   0  0  2  0  0  0  0  0  0  0  0  0
  148.5460  160.7020  130.3360 C   0  0  0  0  0  0  0  0  0  0  0  0
  149.2340  159.3840  130.0710 C   0  0  0  0  0  0  0  0  0  0  0  0
  149.6760  158.9440  131.4670 C   0  0  2  0  0  0  0  0  0  0  0  0
  148.6250  158.0370  132.1400 C   0  0  0  0  0  0  0  0  0  0  0  0
  149.8030  160.1140  132.2290 O   0  0  0  0  0  0  0  0  0  0  0  0
  146.5820  156.9120  134.0350 C   0  0  0  0  0  0  0  0  0  0  0  0
  145.4950  156.2460  134.6130 C   0  0  0  0  0  0  0  0  0  0  0  0
  145.4960  155.1220  135.3690 N   0  0  0  0  0  0  0  0  0  0  0  0
  146.6440  154.3840  135.8230 C   0  0  0  0  0  0  0  0  0  0  0  0
  147.7900  154.6530  135.3720 O   0  0  0  0  0  0  0  0  0  0  0  0
  146.4820  153.3590  136.7550 O   0  0  0  0  0  0  0  0  0  0  0  0
  147.4050  153.1200  137.8120 C   0  0  0  0  0  0  0  0  0  0  0  0
  146.6870  153.2140  139.1170 C   0  0  0  0  0  0  0  0  0  0  0  0
  147.0190  154.0860  139.9630 O   0  0  0  0  0  0  0  0  0  0  0  0
  145.6730  152.3130  139.4190 O   0  0  0  0  0  0  0  0  0  0  0  0
  143.7820  152.5760  138.2520 H   0  0  0  0  0  0  0  0  0  0  0  0
  144.9370  153.9430  138.1870 H   0  0  0  0  0  0  0  0  0  0  0  0
  142.2838  155.9895  135.2858 H   0  0  0  0  0  0  0  0  0  0  0  0
  142.9048  158.2437  133.6559 H   0  0  0  0  0  0  0  0  0  0  0  0
  144.8006  159.4597  132.5554 H   0  0  0  0  0  0  0  0  0  0  0  0
  147.4477  160.6622  133.6212 H   0  0  0  0  0  0  0  0  0  0  0  0
  146.5475  160.6004  132.0417 H   0  0  0  0  0  0  0  0  0  0  0  0
  148.7510  161.9214  132.1083 H   0  0  0  0  0  0  0  0  0  0  0  0
  149.0526  161.5254  129.8112 H   0  0  0  0  0  0  0  0  0  0  0  0
  147.5046  160.7270  129.9828 H   0  0  0  0  0  0  0  0  0  0  0  0
  150.0994  159.5160  129.4049 H   0  0  0  0  0  0  0  0  0  0  0  0
  148.5878  158.6496  129.5678 H   0  0  0  0  0  0  0  0  0  0  0  0
  150.6142  158.3741  131.3959 H   0  0  0  0  0  0  0  0  0  0  0  0
  149.0941  157.5261  132.9937 H   0  0  0  0  0  0  0  0  0  0  0  0
  148.2696  157.3190  131.3862 H   0  0  0  0  0  0  0  0  0  0  0  0
  147.6046  156.5294  134.1690 H   0  0  0  0  0  0  0  0  0  0  0  0
  147.8392  152.1153  137.7019 H   0  0  0  0  0  0  0  0  0  0  0  0
  148.2106  153.8682  137.7772 H   0  0  0  0  0  0  0  0  0  0  0  0
  1  2  1  0
  2  3  2  0
  2  4  1  0
  4  5  2  0
  5  6  1  0
  6  7  2  0
  7  8  1  0
  8  9  2  0
  9 10  1  0
 10 11  1  0
 11 12  1  0
 12 13  1  0
 13 14  1  0
 14 15  1  0
 15 16  1  0
 15 17  1  0
  9 18  1  0
 18 19  2  0
 19 20  1  0
 20 21  1  0
 21 22  2  0
 21 23  1  0
 23 24  1  0
 24 25  1  0
 25 26  2  0
 25 27  1  0
 20  4  1  0
 19  6  1  0
 16 10  1  0
 17 12  1  0
  1 28  1  0
  1 29  1  0
  5 30  1  0
  7 31  1  0
  8 32  1  0
 11 33  1  0
 11 34  1  0
 12 35  1  6
 13 36  1  0
 13 37  1  0
 14 38  1  0
 14 39  1  0
 15 40  1  6
 16 41  1  0
 16 42  1  0
 18 43  1  0
 24 44  1  0
 24 45  1  0
M  CHG  1  27  -1
M  END
>  <UniqueID>  (92) 
92

>  <SMILES>  (92) 
NC(=O)c1cc2ccc(N3C[C@H]4CC[C@@H](C3)O4)cc2n1C(=O)OCC(=O)[O-]

>  <Energy>  (92) 
94.17149460649924

>  <Genealogy>  (92) 
NC(=O)c1cc2ccc(N3CC4CCC(C3)O4)cc2n1C(=O)OCC(=O)[O-] (protonated)
NC(=O)c1cc2ccc(N3C[C@H]4CC[C@@H](C3)O4)cc2n1C(=O)OCC(=O)[O-] (chirality)
NC(=O)c1cc2ccc(N3C[C@H]4CC[C@@H](C3)O4)cc2n1C(=O)OCC(=O)[O-] (3D coordinates assigned)
NC(=O)c1cc2ccc(N3C[C@H]4CC[C@@H](C3)O4)cc2n1C(=O)OCC(=O)[O-] (nonaromatic ring conformer: 94.17149460649924 kcal/mol)

>  <smiles>  (92) 
NC(=O)c1cc2ccc(N3CC4CCC(C3)O4)cc2n1C(=O)OCC(=O)O

>  <score_type>  (92) 
oracle

>  <origin>  (92) 
adg

>  <m_score__min__energy>  (92) 
-8.0500000000000007

>  <m_primary>  (92) 
energy

$$$$
92:0
     RDKit          3D

 40 41  0  0  0  0  0  0  0  0999 V2000
  148.0840  154.0960  133.4550 C   0  0  0  0  0  0  0  0  0  0  0  0
  147.7990  155.0700  132.4070 N   0  0  0  0  0  0  0  0  0  0  0  0
  147.6390  156.4790  132.6540 C   0  0  0  0  0  0  0  0  0  0  0  0
  148.7730  157.3260  132.5740 C   0  0  0  0  0  0  0  0  0  0  0  0
  148.6580  158.7080  132.7990 C   0  0  0  0  0  0  0  0  0  0  0  0
  147.4010  159.2160  133.1100 C   0  0  0  0  0  0  0  0  0  0  0  0
  147.0050  160.5110  133.3550 C   0  0  0  0  0  0  0  0  0  0  0  0
  145.6360  160.4370  133.6060 C   0  0  0  0  0  0  0  0  0  0  0  0
  144.8190  161.5980  134.0160 C   0  0  0  0  0  0  0  0  0  0  0  0
  143.4230  161.6490  133.7300 N   0  0  0  0  0  0  0  0  0  0  0  0
  145.3500  162.5360  134.6670 O   0  0  0  0  0  0  0  0  0  0  0  0
  145.2020  159.1480  133.5060 N   0  0  0  0  0  0  0  0  0  0  0  0
  143.8580  158.6610  133.6220 C   0  0  0  0  0  0  0  0  0  0  0  0
  143.2710  158.1880  132.6110 O   0  0  0  0  0  0  0  0  0  0  0  0
  143.2120  158.7020  134.8630 O   0  0  0  0  0  0  0  0  0  0  0  0
  142.0620  159.5040  135.1230 C   0  0  0  0  0  0  0  0  0  0  0  0
  140.9840  159.2280  134.1090 C   0  0  0  0  0  0  0  0  0  0  0  0
  141.0320  159.8310  133.0030 O   0  0  0  0  0  0  0  0  0  0  0  0
  139.8960  158.3170  134.3830 N   0  0  0  0  0  0  0  0  0  0  0  0
  138.8190  158.1790  133.3980 C   0  0  0  0  0  0  0  0  0  0  0  0
  139.8620  157.5350  135.6240 C   0  0  0  0  0  0  0  0  0  0  0  0
  146.2950  158.4130  133.2080 C   0  0  0  0  0  0  0  0  0  0  0  0
  146.3750  157.0360  132.9710 C   0  0  0  0  0  0  0  0  0  0  0  0
  147.9464  154.5662  134.4399 H   0  0  0  0  0  0  0  0  0  0  0  0
  147.3982  153.2414  133.3577 H   0  0  0  0  0  0  0  0  0  0  0  0
  149.1222  153.7459  133.3577 H   0  0  0  0  0  0  0  0  0  0  0  0
  147.7130  154.7160  131.4270 H   0  0  0  0  0  0  0  0  0  0  0  0
  149.7560  156.8954  132.3326 H   0  0  0  0  0  0  0  0  0  0  0  0
  149.5353  159.3682  132.7313 H   0  0  0  0  0  0  0  0  0  0  0  0
  147.6350  161.4128  133.3531 H   0  0  0  0  0  0  0  0  0  0  0  0
  142.8720  160.7750  133.5850 H   0  0  0  0  0  0  0  0  0  0  0  0
  141.6802  159.2735  136.1285 H   0  0  0  0  0  0  0  0  0  0  0  0
  142.3469  160.5645  135.0583 H   0  0  0  0  0  0  0  0  0  0  0  0
  137.8585  158.0559  133.9198 H   0  0  0  0  0  0  0  0  0  0  0  0
  138.7811  159.0796  132.7676 H   0  0  0  0  0  0  0  0  0  0  0  0
  139.0094  157.2979  132.7676 H   0  0  0  0  0  0  0  0  0  0  0  0
  139.8916  158.2159  136.4874 H   0  0  0  0  0  0  0  0  0  0  0  0
  138.9372  156.9404  135.6575 H   0  0  0  0  0  0  0  0  0  0  0  0
  140.7318  156.8624  135.6575 H   0  0  0  0  0  0  0  0  0  0  0  0
  145.4784  156.4014  133.0293 H   0  0  0  0  0  0  0  0  0  0  0  0
  1  2  1  0
  2  3  1  0
  3  4  2  0
  4  5  1  0
  5  6  2  0
  6  7  1  0
  7  8  2  0
  8  9  1  0
  9 10  1  0
  9 11  2  0
  8 12  1  0
 12 13  1  0
 13 14  2  0
 13 15  1  0
 15 16  1  0
 16 17  1  0
 17 18  2  0
 17 19  1  0
 19 20  1  0
 19 21  1  0
 12 22  1  0
 22 23  2  0
 23  3  1  0
 22  6  1  0
  1 24  1  0
  1 25  1  0
  1 26  1  0
  2 27  1  0
  4 28  1  0
  5 29  1  0
  7 30  1  0
 10 31  1  0
 16 32  1  0
 16 33  1  0
 20 34  1  0
 20 35  1  0
 20 36  1  0
 21 37  1  0
 21 38  1  0
 21 39  1  0
 23 40  1  0
M  CHG  1  10  -1
M  END
>  <UniqueID>  (93) 
93

>  <SMILES>  (93) 
CNc1ccc2cc(C([NH-])=O)n(C(=O)OCC(=O)N(C)C)c2c1

>  <Energy>  (93) 
72.54260934202962

>  <Genealogy>  (93) 
CNc1ccc2cc(C([NH-])=O)n(C(=O)OCC(=O)N(C)C)c2c1 (protonated)
CNc1ccc2cc(C([NH-])=O)n(C(=O)OCC(=O)N(C)C)c2c1 (3D coordinates assigned)
CNc1ccc2cc(C([NH-])=O)n(C(=O)OCC(=O)N(C)C)c2c1 (optimized conformer: 72.54260934202962 kcal/mol)

>  <smiles>  (93) 
CNc1ccc2cc(C(N)=O)n(C(=O)OCC(=O)N(C)C)c2c1

>  <score_type>  (93) 
oracle

>  <origin>  (93) 
adg

>  <m_score__min__energy>  (93) 
-6.6299999999999999

>  <m_primary>  (93) 
energy

$$$$
93:0
     RDKit          3D

 36 37  0  0  0  0  0  0  0  0999 V2000
  139.8550  157.1150  135.1760 C   0  0  0  0  0  0  0  0  0  0  0  0
  139.6440  156.7770  133.8990 C   0  0  0  0  0  0  0  0  0  0  0  0
  138.8790  157.6630  133.0590 N   0  0  0  0  0  0  0  0  0  0  0  0
  139.4760  158.7950  132.3480 C   0  0  0  0  0  0  0  0  0  0  0  0
  138.4540  159.4750  131.4950 C   0  0  0  0  0  0  0  0  0  0  0  0
  138.7860  160.4370  130.7550 O   0  0  0  0  0  0  0  0  0  0  0  0
  137.1450  159.0120  131.4770 O   0  0  0  0  0  0  0  0  0  0  0  0
  140.1990  155.5030  133.3780 C   0  0  0  0  0  0  0  0  0  0  0  0
  139.4750  154.7460  132.6760 O   0  0  0  0  0  0  0  0  0  0  0  0
  141.5540  155.1140  133.6570 N   0  0  0  0  0  0  0  0  0  0  0  0
  142.0210  153.8730  133.9760 C   0  0  0  0  0  0  0  0  0  0  0  0
  141.2130  152.6340  133.9980 C   0  0  0  0  0  0  0  0  0  0  0  0
  140.2980  152.3390  132.9410 N   0  0  0  0  0  0  0  0  0  0  0  0
  141.3090  151.8350  134.9660 O   0  0  0  0  0  0  0  0  0  0  0  0
  143.3930  153.9190  134.2190 C   0  0  0  0  0  0  0  0  0  0  0  0
  143.7540  155.2350  134.0290 C   0  0  0  0  0  0  0  0  0  0  0  0
  144.9960  155.8510  134.1490 C   0  0  0  0  0  0  0  0  0  0  0  0
  145.0700  157.2350  133.9170 C   0  0  0  0  0  0  0  0  0  0  0  0
  143.9090  157.9730  133.5740 C   0  0  0  0  0  0  0  0  0  0  0  0
  143.9880  159.4550  133.3410 C   0  0  0  0  0  0  0  0  0  0  0  0
  142.9430  160.0860  133.9910 F   0  0  0  0  0  0  0  0  0  0  0  0
  145.1870  159.9390  133.8280 F   0  0  0  0  0  0  0  0  0  0  0  0
  142.6650  157.3120  133.4610 C   0  0  0  0  0  0  0  0  0  0  0  0
  142.6260  155.9330  133.6860 C   0  0  0  0  0  0  0  0  0  0  0  0
  140.4368  156.4507  135.8319 H   0  0  0  0  0  0  0  0  0  0  0  0
  139.4467  158.0573  135.5702 H   0  0  0  0  0  0  0  0  0  0  0  0
  137.8810  157.4190  132.8600 H   0  0  0  0  0  0  0  0  0  0  0  0
  139.8728  159.5138  133.0801 H   0  0  0  0  0  0  0  0  0  0  0  0
  140.2866  158.4233  131.7040 H   0  0  0  0  0  0  0  0  0  0  0  0
  140.2340  152.9440  132.0930 H   0  0  0  0  0  0  0  0  0  0  0  0
  139.7060  151.4800  132.9860 H   0  0  0  0  0  0  0  0  0  0  0  0
  144.0483  153.0822  134.5023 H   0  0  0  0  0  0  0  0  0  0  0  0
  145.8923  155.2724  134.4172 H   0  0  0  0  0  0  0  0  0  0  0  0
  146.0379  157.7507  134.0023 H   0  0  0  0  0  0  0  0  0  0  0  0
  143.9222  159.6538  132.2611 H   0  0  0  0  0  0  0  0  0  0  0  0
  141.7516  157.8680  133.2028 H   0  0  0  0  0  0  0  0  0  0  0  0
  1  2  2  0
  2  3  1  0
  3  4  1  0
  4  5  1  0
  5  6  2  0
  5  7  1  0
  2  8  1  0
  8  9  2  0
  8 10  1  0
 10 11  1  0
 11 12  1  0
 12 13  1  0
 12 14  2  0
 11 15  2  0
 15 16  1  0
 16 17  2  0
 17 18  1  0
 18 19  2  0
 19 20  1  0
 20 21  1  0
 20 22  1  0
 19 23  1  0
 23 24  2  0
 24 10  1  0
 24 16  1  0
  1 25  1  0
  1 26  1  0
  3 27  1  0
  4 28  1  0
  4 29  1  0
 13 30  1  0
 13 31  1  0
 15 32  1  0
 17 33  1  0
 18 34  1  0
 20 35  1  0
 23 36  1  0
M  CHG  1   7  -1
M  END
>  <UniqueID>  (94) 
94

>  <SMILES>  (94) 
C=C(NCC(=O)[O-])C(=O)n1c(C(N)=O)cc2ccc(C(F)F)cc21

>  <Energy>  (94) 
74.48418491405998

>  <Genealogy>  (94) 
C=C(NCC(=O)[O-])C(=O)n1c(C(N)=O)cc2ccc(C(F)F)cc21 (protonated)
C=C(NCC(=O)[O-])C(=O)n1c(C(N)=O)cc2ccc(C(F)F)cc21 (3D coordinates assigned)
C=C(NCC(=O)[O-])C(=O)n1c(C(N)=O)cc2ccc(C(F)F)cc21 (optimized conformer: 74.48418491405998 kcal/mol)

>  <smiles>  (94) 
C=C(NCC(=O)O)C(=O)n1c(C(N)=O)cc2ccc(C(F)F)cc21

>  <score_type>  (94) 
oracle

>  <origin>  (94) 
adg

>  <m_score__min__energy>  (94) 
-6.6500000000000004

>  <m_primary>  (94) 
energy

$$$$
