0:0
     RDKit          3D

 42 43  0  0  0  0  0  0  0  0999 V2000
  141.0870  159.5350  133.8840 C   0  0  0  0  0  0  0  0  0  0  0  0
  141.8150  158.7550  134.9900 C   0  0  0  0  0  0  0  0  0  0  0  0
  141.4730  157.2590  134.8530 C   0  0  0  0  0  0  0  0  0  0  0  0
  141.3620  159.2950  136.3600 C   0  0  0  0  0  0  0  0  0  0  0  0
  143.2200  158.9710  134.8040 O   0  0  0  0  0  0  0  0  0  0  0  0
  143.9600  158.6970  133.6430 C   0  0  0  0  0  0  0  0  0  0  0  0
  143.4600  158.0300  132.6980 O   0  0  0  0  0  0  0  0  0  0  0  0
  145.3160  159.1590  133.5500 N   0  0  0  0  0  0  0  0  0  0  0  0
  145.7830  160.4330  133.6860 C   0  0  0  0  0  0  0  0  0  0  0  0
  144.9870  161.6100  134.0980 C   0  0  0  0  0  0  0  0  0  0  0  0
  143.6090  161.6930  133.7420 N   0  0  0  0  0  0  0  0  0  0  0  0
  145.5180  162.5590  134.7320 O   0  0  0  0  0  0  0  0  0  0  0  0
  147.1570  160.4760  133.4640 C   0  0  0  0  0  0  0  0  0  0  0  0
  147.5240  159.1780  133.1930 C   0  0  0  0  0  0  0  0  0  0  0  0
  148.7720  158.6440  132.8900 C   0  0  0  0  0  0  0  0  0  0  0  0
  148.8540  157.2660  132.6310 C   0  0  0  0  0  0  0  0  0  0  0  0
  147.6970  156.4480  132.6670 C   0  0  0  0  0  0  0  0  0  0  0  0
  147.8230  155.0410  132.3850 N   0  0  0  0  0  0  0  0  0  0  0  0
  148.5070  154.1040  133.2800 C   0  0  0  0  0  0  0  0  0  0  0  0
  148.9970  152.8730  132.5230 C   0  0  0  0  0  0  0  0  0  0  0  0
  149.9580  152.2090  133.2640 F   0  0  0  0  0  0  0  0  0  0  0  0
  146.4440  157.0310  132.9760 C   0  0  0  0  0  0  0  0  0  0  0  0
  146.3950  158.4030  133.2500 C   0  0  0  0  0  0  0  0  0  0  0  0
  140.4040  160.2668  134.3402 H   0  0  0  0  0  0  0  0  0  0  0  0
  141.8245  160.0611  133.2601 H   0  0  0  0  0  0  0  0  0  0  0  0
  140.5114  158.8355  133.2601 H   0  0  0  0  0  0  0  0  0  0  0  0
  141.3711  156.8131  135.8534 H   0  0  0  0  0  0  0  0  0  0  0  0
  140.5263  157.1481  134.3039 H   0  0  0  0  0  0  0  0  0  0  0  0
  142.2775  156.7478  134.3039 H   0  0  0  0  0  0  0  0  0  0  0  0
  141.8469  158.7170  137.1605 H   0  0  0  0  0  0  0  0  0  0  0  0
  141.6459  160.3540  136.4488 H   0  0  0  0  0  0  0  0  0  0  0  0
  140.2698  159.1995  136.4488 H   0  0  0  0  0  0  0  0  0  0  0  0
  143.0020  160.8430  133.7440 H   0  0  0  0  0  0  0  0  0  0  0  0
  147.8104  161.3602  133.4981 H   0  0  0  0  0  0  0  0  0  0  0  0
  149.6677  159.2816  132.8543 H   0  0  0  0  0  0  0  0  0  0  0  0
  149.8298  156.8153  132.3969 H   0  0  0  0  0  0  0  0  0  0  0  0
  147.4130  154.6800  131.4930 H   0  0  0  0  0  0  0  0  0  0  0  0
  149.3697  154.6103  133.7377 H   0  0  0  0  0  0  0  0  0  0  0  0
  147.7942  153.7768  134.0513 H   0  0  0  0  0  0  0  0  0  0  0  0
  148.1485  152.1975  132.3394 H   0  0  0  0  0  0  0  0  0  0  0  0
  149.4370  153.1909  131.5663 H   0  0  0  0  0  0  0  0  0  0  0  0
  145.5299  156.4196  133.0002 H   0  0  0  0  0  0  0  0  0  0  0  0
  1  2  1  0
  2  3  1  0
  2  4  1  0
  2  5  1  0
  5  6  1  0
  6  7  2  0
  6  8  1  0
  8  9  1  0
  9 10  1  0
 10 11  1  0
 10 12  2  0
  9 13  2  0
 13 14  1  0
 14 15  2  0
 15 16  1  0
 16 17  2  0
 17 18  1  0
 18 19  1  0
 19 20  1  0
 20 21  1  0
 17 22  1  0
 22 23  2  0
 23  8  1  0
 23 14  1  0
  1 24  1  0
  1 25  1  0
  1 26  1  0
  3 27  1  0
  3 28  1  0
  3 29  1  0
  4 30  1  0
  4 31  1  0
  4 32  1  0
 11 33  1  0
 13 34  1  0
 15 35  1  0
 16 36  1  0
 18 37  1  0
 19 38  1  0
 19 39  1  0
 20 40  1  0
 20 41  1  0
 22 42  1  0
M  CHG  1  11  -1
M  END
>  <UniqueID>  (1) 
1

>  <SMILES>  (1) 
CC(C)(C)OC(=O)n1c(C([NH-])=O)cc2ccc(NCCF)cc21

>  <Energy>  (1) 
72.03275898316872

>  <Genealogy>  (1) 
CC(C)(C)OC(=O)n1c(C([NH-])=O)cc2ccc(NCCF)cc21 (protonated)
CC(C)(C)OC(=O)n1c(C([NH-])=O)cc2ccc(NCCF)cc21 (3D coordinates assigned)
CC(C)(C)OC(=O)n1c(C([NH-])=O)cc2ccc(NCCF)cc21 (optimized conformer: 72.03275898316872 kcal/mol)

>  <smiles>  (1) 
CC(C)(C)OC(=O)n1c(C(N)=O)cc2ccc(NCCF)cc21

>  <score_type>  (1) 
oracle

>  <origin>  (1) 
adg

>  <m_score__min__energy>  (1) 
-6.5599999999999996

>  <m_primary>  (1) 
energy

$$$$
1:0
     RDKit          3D

 43 44  0  0  0  0  0  0  0  0999 V2000
  149.6560  152.2190  132.2380 C   0  0  0  0  0  0  0  0  0  0  0  0
  149.1680  153.4050  132.6080 C   0  0  0  0  0  0  0  0  0  0  0  0
  147.8050  153.5270  133.2150 C   0  0  0  0  0  0  0  0  0  0  0  0
  147.8350  154.4790  134.2730 O   0  0  0  0  0  0  0  0  0  0  0  0
  146.8940  154.4810  135.3070 C   0  0  0  0  0  0  0  0  0  0  0  0
  147.0290  153.7160  136.3000 O   0  0  0  0  0  0  0  0  0  0  0  0
  145.7280  155.4150  135.2420 C   0  0  0  0  0  0  0  0  0  0  0  0
  145.2910  155.6000  133.8510 N   0  0  0  0  0  0  0  0  0  0  0  0
  144.2010  154.7820  133.3080 C   0  0  0  0  0  0  0  0  0  0  0  0
  146.0100  156.5030  132.9850 C   0  0  0  0  0  0  0  0  0  0  0  0
  146.7400  156.0500  132.0620 O   0  0  0  0  0  0  0  0  0  0  0  0
  145.8740  157.9240  133.1280 N   0  0  0  0  0  0  0  0  0  0  0  0
  146.8740  158.8470  133.1520 C   0  0  0  0  0  0  0  0  0  0  0  0
  148.3090  158.5500  132.9290 C   0  0  0  0  0  0  0  0  0  0  0  0
  148.8530  157.2630  133.2290 N   0  0  0  0  0  0  0  0  0  0  0  0
  149.0730  159.4430  132.4750 O   0  0  0  0  0  0  0  0  0  0  0  0
  146.3480  160.1200  133.3820 C   0  0  0  0  0  0  0  0  0  0  0  0
  144.9890  159.9370  133.5080 C   0  0  0  0  0  0  0  0  0  0  0  0
  143.9790  160.8600  133.7650 C   0  0  0  0  0  0  0  0  0  0  0  0
  142.6610  160.3820  133.8640 C   0  0  0  0  0  0  0  0  0  0  0  0
  142.3790  159.0030  133.7050 C   0  0  0  0  0  0  0  0  0  0  0  0
  140.9720  158.5010  133.8400 C   0  0  0  0  0  0  0  0  0  0  0  0
  139.8420  159.0270  132.1040 I   0  0  0  0  0  0  0  0  0  0  0  0
  143.4330  158.0930  133.4640 C   0  0  0  0  0  0  0  0  0  0  0  0
  144.7310  158.6010  133.3560 C   0  0  0  0  0  0  0  0  0  0  0  0
  150.6601  152.1517  131.7939 H   0  0  0  0  0  0  0  0  0  0  0  0
  149.0541  151.3089  132.3772 H   0  0  0  0  0  0  0  0  0  0  0  0
  149.7782  154.3089  132.4643 H   0  0  0  0  0  0  0  0  0  0  0  0
  147.0905  153.8568  132.4464 H   0  0  0  0  0  0  0  0  0  0  0  0
  147.4943  152.5496  133.6128 H   0  0  0  0  0  0  0  0  0  0  0  0
  144.8971  154.9975  135.8296 H   0  0  0  0  0  0  0  0  0  0  0  0
  146.0310  156.3900  135.6514 H   0  0  0  0  0  0  0  0  0  0  0  0
  143.6215  154.3471  134.1357 H   0  0  0  0  0  0  0  0  0  0  0  0
  143.5430  155.4111  132.6906 H   0  0  0  0  0  0  0  0  0  0  0  0
  144.6212  153.9744  132.6906 H   0  0  0  0  0  0  0  0  0  0  0  0
  149.8720  157.0830  133.0880 H   0  0  0  0  0  0  0  0  0  0  0  0
  148.2530  156.4730  133.5510 H   0  0  0  0  0  0  0  0  0  0  0  0
  146.9019  161.0680  133.4485 H   0  0  0  0  0  0  0  0  0  0  0  0
  144.2053  161.9296  133.8867 H   0  0  0  0  0  0  0  0  0  0  0  0
  141.8403  161.0858  134.0670 H   0  0  0  0  0  0  0  0  0  0  0  0
  140.9842  157.4065  133.9494 H   0  0  0  0  0  0  0  0  0  0  0  0
  140.5079  158.9583  134.7263 H   0  0  0  0  0  0  0  0  0  0  0  0
  143.2376  157.0151  133.3642 H   0  0  0  0  0  0  0  0  0  0  0  0
  1  2  2  0
  2  3  1  0
  3  4  1  0
  4  5  1  0
  5  6  2  0
  5  7  1  0
  7  8  1  0
  8  9  1  0
  8 10  1  0
 10 11  2  0
 10 12  1  0
 12 13  1  0
 13 14  1  0
 14 15  1  0
 14 16  2  0
 13 17  2  0
 17 18  1  0
 18 19  2  0
 19 20  1  0
 20 21  2  0
 21 22  1  0
 22 23  1  0
 21 24  1  0
 24 25  2  0
 25 12  1  0
 25 18  1  0
  1 26  1  0
  1 27  1  0
  2 28  1  0
  3 29  1  0
  3 30  1  0
  7 31  1  0
  7 32  1  0
  9 33  1  0
  9 34  1  0
  9 35  1  0
 15 36  1  0
 15 37  1  0
 17 38  1  0
 19 39  1  0
 20 40  1  0
 22 41  1  0
 22 42  1  0
 24 43  1  0
M  END
>  <UniqueID>  (2) 
2

>  <SMILES>  (2) 
C=CCOC(=O)CN(C)C(=O)n1c(C(N)=O)cc2ccc(CI)cc21

>  <Energy>  (2) 
71.21530929941247

>  <Genealogy>  (2) 
C=CCOC(=O)CN(C)C(=O)n1c(C(N)=O)cc2ccc(CI)cc21 (3D coordinates assigned)
C=CCOC(=O)CN(C)C(=O)n1c(C(N)=O)cc2ccc(CI)cc21 (optimized conformer: 71.21530929941247 kcal/mol)

>  <smiles>  (2) 
C=CCOC(=O)CN(C)C(=O)n1c(C(N)=O)cc2ccc(CI)cc21

>  <score_type>  (2) 
oracle

>  <origin>  (2) 
adg

>  <m_score__min__energy>  (2) 
-7.8200000000000003

>  <m_primary>  (2) 
energy

$$$$
2:0
     RDKit          3D

 32 33  0  0  0  0  0  0  0  0999 V2000
  141.7400  159.7060  135.0730 N   0  0  0  0  0  0  0  0  0  0  0  0
  142.5110  160.3860  134.0840 C   0  0  0  0  0  0  0  0  0  0  0  0
  141.9930  161.3430  133.4510 O   0  0  0  0  0  0  0  0  0  0  0  0
  143.9120  159.9840  133.8400 C   0  0  0  0  0  0  0  0  0  0  0  0
  144.9680  160.8890  133.7370 C   0  0  0  0  0  0  0  0  0  0  0  0
  146.0750  160.1280  133.4340 C   0  0  0  0  0  0  0  0  0  0  0  0
  147.3990  160.5080  133.2370 C   0  0  0  0  0  0  0  0  0  0  0  0
  148.3410  159.4990  132.9730 C   0  0  0  0  0  0  0  0  0  0  0  0
  147.9460  158.1400  132.9200 C   0  0  0  0  0  0  0  0  0  0  0  0
  148.9160  157.1210  132.6650 N   0  0  0  0  0  0  0  0  0  0  0  0
  146.5940  157.7920  133.1250 C   0  0  0  0  0  0  0  0  0  0  0  0
  145.6740  158.8180  133.3650 C   0  0  0  0  0  0  0  0  0  0  0  0
  144.3520  158.7140  133.6130 N   0  0  0  0  0  0  0  0  0  0  0  0
  143.5980  157.4940  133.6600 C   0  0  0  0  0  0  0  0  0  0  0  0
  143.3710  156.8500  132.5990 O   0  0  0  0  0  0  0  0  0  0  0  0
  143.1020  157.0380  134.8860 O   0  0  0  0  0  0  0  0  0  0  0  0
  142.0700  156.0580  134.9840 C   0  0  0  0  0  0  0  0  0  0  0  0
  140.8100  156.6730  135.1300 O   0  0  0  0  0  0  0  0  0  0  0  0
  140.6420  157.2520  136.7270 P   0  0  1  0  0  0  0  0  0  0  0  0
  139.4620  158.1930  136.8020 O   0  0  0  0  0  0  0  0  0  0  0  0
  140.4220  155.9820  137.8240 O   0  0  0  0  0  0  0  0  0  0  0  0
  142.0460  158.0990  137.1470 O   0  0  0  0  0  0  0  0  0  0  0  0
  141.6850  158.6630  135.0870 H   0  0  0  0  0  0  0  0  0  0  0  0
  144.9257  161.9801  133.8697 H   0  0  0  0  0  0  0  0  0  0  0  0
  147.6990  161.5651  133.2863 H   0  0  0  0  0  0  0  0  0  0  0  0
  149.3947  159.7672  132.8060 H   0  0  0  0  0  0  0  0  0  0  0  0
  148.9310  156.6150  131.7510 H   0  0  0  0  0  0  0  0  0  0  0  0
  149.6240  156.8650  133.3870 H   0  0  0  0  0  0  0  0  0  0  0  0
  146.2717  156.7407  133.0968 H   0  0  0  0  0  0  0  0  0  0  0  0
  142.0681  155.4434  134.0717 H   0  0  0  0  0  0  0  0  0  0  0  0
  142.2613  155.4306  135.8670 H   0  0  0  0  0  0  0  0  0  0  0  0
  142.3620  158.5020  136.2980 H   0  0  0  0  0  0  0  0  0  0  0  0
  1  2  1  0
  2  3  2  0
  2  4  1  0
  4  5  2  0
  5  6  1  0
  6  7  2  0
  7  8  1  0
  8  9  2  0
  9 10  1  0
  9 11  1  0
 11 12  2  0
 12 13  1  0
 13 14  1  0
 14 15  2  0
 14 16  1  0
 16 17  1  0
 17 18  1  0
 18 19  1  0
 19 20  2  0
 19 21  1  1
 19 22  1  0
 13  4  1  0
 12  6  1  0
  1 23  1  0
  5 24  1  0
  7 25  1  0
  8 26  1  0
 10 27  1  0
 10 28  1  0
 11 29  1  0
 17 30  1  0
 17 31  1  0
 22 32  1  0
M  CHG  2   1  -1  21  -1
M  END
>  <UniqueID>  (3) 
3

>  <SMILES>  (3) 
[NH-]C(=O)c1cc2ccc(N)cc2n1C(=O)OCO[P@@](=O)([O-])O

>  <Energy>  (3) 
67.08073176455893

>  <Genealogy>  (3) 
[NH-]C(=O)c1cc2ccc(N)cc2n1C(=O)OCOP(=O)([O-])O (protonated)
[NH-]C(=O)c1cc2ccc(N)cc2n1C(=O)OCO[P@@](=O)([O-])O (chirality)
[NH-]C(=O)c1cc2ccc(N)cc2n1C(=O)OCO[P@@](=O)([O-])O (3D coordinates assigned)
[NH-]C(=O)c1cc2ccc(N)cc2n1C(=O)OCO[P@@](=O)([O-])O (optimized conformer: 67.08073176455893 kcal/mol)

>  <smiles>  (3) 
NC(=O)c1cc2ccc(N)cc2n1C(=O)OCOP(=O)(O)O

>  <score_type>  (3) 
oracle

>  <origin>  (3) 
adg

>  <m_score__min__energy>  (3) 
-5.5899999999999999

>  <m_primary>  (3) 
energy

$$$$
3:0
     RDKit          3D

 37 38  0  0  0  0  0  0  0  0999 V2000
  149.5880  157.1460  131.9590 N   0  0  0  0  0  0  0  0  0  0  0  0
  149.1660  158.4890  132.1960 C   0  0  0  0  0  0  0  0  0  0  0  0
  149.9520  159.4380  131.9280 O   0  0  0  0  0  0  0  0  0  0  0  0
  147.8070  158.7900  132.6850 C   0  0  0  0  0  0  0  0  0  0  0  0
  147.3610  160.0790  132.9690 C   0  0  0  0  0  0  0  0  0  0  0  0
  146.0420  159.9350  133.3310 C   0  0  0  0  0  0  0  0  0  0  0  0
  145.1200  160.8910  133.7430 C   0  0  0  0  0  0  0  0  0  0  0  0
  143.8350  160.4550  134.1060 C   0  0  0  0  0  0  0  0  0  0  0  0
  143.4910  159.0790  134.0460 C   0  0  0  0  0  0  0  0  0  0  0  0
  142.1310  158.6170  134.5010 C   0  0  0  0  0  0  0  0  0  0  0  0
  142.2580  157.4070  135.1590 F   0  0  0  0  0  0  0  0  0  0  0  0
  141.2830  158.4540  133.4190 F   0  0  0  0  0  0  0  0  0  0  0  0
  141.5620  159.5400  135.3600 F   0  0  0  0  0  0  0  0  0  0  0  0
  144.4670  158.1350  133.6470 C   0  0  0  0  0  0  0  0  0  0  0  0
  145.7320  158.6010  133.2700 C   0  0  0  0  0  0  0  0  0  0  0  0
  146.8080  157.8830  132.8770 N   0  0  0  0  0  0  0  0  0  0  0  0
  146.9030  156.4500  132.8130 C   0  0  0  0  0  0  0  0  0  0  0  0
  146.2610  155.8150  131.9350 O   0  0  0  0  0  0  0  0  0  0  0  0
  147.7280  155.7470  133.7500 N   0  0  0  0  0  0  0  0  0  0  0  0
  147.3070  154.5510  134.4720 C   0  0  0  0  0  0  0  0  0  0  0  0
  147.5020  153.2970  133.6070 C   0  0  1  0  0  0  0  0  0  0  0  0
  146.5120  153.2530  132.6130 O   0  0  0  0  0  0  0  0  0  0  0  0
  148.8930  153.3110  132.9530 C   0  0  0  0  0  0  0  0  0  0  0  0
  148.9180  154.1950  131.8660 O   0  0  0  0  0  0  0  0  0  0  0  0
  150.5670  156.9490  131.6520 H   0  0  0  0  0  0  0  0  0  0  0  0
  148.9130  156.3510  132.0090 H   0  0  0  0  0  0  0  0  0  0  0  0
  147.9402  161.0126  132.9152 H   0  0  0  0  0  0  0  0  0  0  0  0
  145.3889  161.9569  133.7834 H   0  0  0  0  0  0  0  0  0  0  0  0
  143.0865  161.1883  134.4407 H   0  0  0  0  0  0  0  0  0  0  0  0
  144.2368  157.0594  133.6334 H   0  0  0  0  0  0  0  0  0  0  0  0
  147.9062  154.4535  135.3893 H   0  0  0  0  0  0  0  0  0  0  0  0
  146.2398  154.6460  134.7211 H   0  0  0  0  0  0  0  0  0  0  0  0
  147.4205  152.4060  134.2469 H   0  0  0  0  0  0  0  0  0  0  0  0
  146.7820  153.8980  131.9070 H   0  0  0  0  0  0  0  0  0  0  0  0
  149.6386  153.6305  133.6960 H   0  0  0  0  0  0  0  0  0  0  0  0
  149.1254  152.2983  132.5919 H   0  0  0  0  0  0  0  0  0  0  0  0
  148.0210  154.6200  131.8240 H   0  0  0  0  0  0  0  0  0  0  0  0
  1  2  1  0
  2  3  2  0
  2  4  1  0
  4  5  2  0
  5  6  1  0
  6  7  2  0
  7  8  1  0
  8  9  2  0
  9 10  1  0
 10 11  1  0
 10 12  1  0
 10 13  1  0
  9 14  1  0
 14 15  2  0
 15 16  1  0
 16 17  1  0
 17 18  2  0
 17 19  1  0
 19 20  1  0
 20 21  1  0
 21 22  1  0
 21 23  1  0
 23 24  1  0
 16  4  1  0
 15  6  1  0
  1 25  1  0
  1 26  1  0
  5 27  1  0
  7 28  1  0
  8 29  1  0
 14 30  1  0
 20 31  1  0
 20 32  1  0
 21 33  1  1
 22 34  1  0
 23 35  1  0
 23 36  1  0
 24 37  1  0
M  CHG  1  19  -1
M  END
>  <UniqueID>  (4) 
4

>  <SMILES>  (4) 
NC(=O)c1cc2ccc(C(F)(F)F)cc2n1C(=O)[N-]C[C@@H](O)CO

>  <Energy>  (4) 
72.58453311489902

>  <Genealogy>  (4) 
NC(=O)c1cc2ccc(C(F)(F)F)cc2n1C(=O)[N-]C[C@@H](O)CO (protonated)
NC(=O)c1cc2ccc(C(F)(F)F)cc2n1C(=O)[N-]C[C@@H](O)CO (3D coordinates assigned)
NC(=O)c1cc2ccc(C(F)(F)F)cc2n1C(=O)[N-]C[C@@H](O)CO (optimized conformer: 72.58453311489902 kcal/mol)

>  <smiles>  (4) 
NC(=O)c1cc2ccc(C(F)(F)F)cc2n1C(=O)NC[C@@H](O)CO

>  <score_type>  (4) 
oracle

>  <origin>  (4) 
adg

>  <m_score__min__energy>  (4) 
-6.21

>  <m_primary>  (4) 
energy

$$$$
4:0
     RDKit          3D

 45 46  0  0  0  0  0  0  0  0999 V2000
  141.4980  160.0330  135.2370 N   0  0  0  0  0  0  0  0  0  0  0  0
  142.0760  160.0240  133.9340 C   0  0  0  0  0  0  0  0  0  0  0  0
  141.3440  160.2480  132.9340 O   0  0  0  0  0  0  0  0  0  0  0  0
  143.5110  159.7250  133.7380 C   0  0  0  0  0  0  0  0  0  0  0  0
  144.5080  160.7000  133.7220 C   0  0  0  0  0  0  0  0  0  0  0  0
  145.6780  160.0210  133.4640 C   0  0  0  0  0  0  0  0  0  0  0  0
  146.9830  160.4930  133.3430 C   0  0  0  0  0  0  0  0  0  0  0  0
  148.0010  159.5590  133.0920 C   0  0  0  0  0  0  0  0  0  0  0  0
  147.7030  158.1770  132.9870 C   0  0  0  0  0  0  0  0  0  0  0  0
  148.7930  157.1870  132.6910 C   0  0  0  0  0  0  0  0  0  0  0  0
  148.1690  155.4920  132.8920 P   0  0  2  0  0  0  0  0  0  0  0  0
  147.7260  155.2890  134.3230 O   0  0  0  0  0  0  0  0  0  0  0  0
  149.3970  154.3880  132.5220 O   0  0  0  0  0  0  0  0  0  0  0  0
  146.8550  155.2460  131.8550 O   0  0  0  0  0  0  0  0  0  0  0  0
  146.3670  157.7360  133.1120 C   0  0  0  0  0  0  0  0  0  0  0  0
  145.3720  158.6920  133.3370 C   0  0  0  0  0  0  0  0  0  0  0  0
  144.0450  158.4950  133.4970 N   0  0  0  0  0  0  0  0  0  0  0  0
  143.3690  157.2290  133.4870 C   0  0  0  0  0  0  0  0  0  0  0  0
  143.1100  156.6690  132.3880 O   0  0  0  0  0  0  0  0  0  0  0  0
  142.9730  156.5760  134.7420 C   0  0  0  0  0  0  0  0  0  0  0  0
  142.1820  157.1600  135.5340 O   0  0  0  0  0  0  0  0  0  0  0  0
  143.4820  155.3130  135.0540 O   0  0  0  0  0  0  0  0  0  0  0  0
  144.7760  154.8840  134.6430 C   0  0  0  0  0  0  0  0  0  0  0  0
  144.7590  154.5670  133.2550 O   0  0  0  0  0  0  0  0  0  0  0  0
  144.4350  153.2950  132.7710 C   0  0  0  0  0  0  0  0  0  0  0  0
  145.1120  152.7710  131.8430 O   0  0  0  0  0  0  0  0  0  0  0  0
  143.3500  152.6160  133.3290 O   0  0  0  0  0  0  0  0  0  0  0  0
  142.1290  152.4090  132.6250 C   0  0  0  0  0  0  0  0  0  0  0  0
  141.0910  153.4290  133.0790 C   0  0  0  0  0  0  0  0  0  0  0  0
  141.6100  154.7290  132.9990 O   0  0  0  0  0  0  0  0  0  0  0  0
  141.4540  159.1610  135.8100 H   0  0  0  0  0  0  0  0  0  0  0  0
  144.3858  161.7815  133.8815 H   0  0  0  0  0  0  0  0  0  0  0  0
  147.2092  161.5650  133.4411 H   0  0  0  0  0  0  0  0  0  0  0  0
  149.0394  159.9029  132.9757 H   0  0  0  0  0  0  0  0  0  0  0  0
  149.1401  157.3266  131.6566 H   0  0  0  0  0  0  0  0  0  0  0  0
  149.6262  157.3491  133.3906 H   0  0  0  0  0  0  0  0  0  0  0  0
  146.5660  154.3140  132.0300 H   0  0  0  0  0  0  0  0  0  0  0  0
  146.1159  156.6679  133.0343 H   0  0  0  0  0  0  0  0  0  0  0  0
  145.5030  155.6892  134.8251 H   0  0  0  0  0  0  0  0  0  0  0  0
  145.0625  153.9904  135.2169 H   0  0  0  0  0  0  0  0  0  0  0  0
  142.3060  152.5241  131.5455 H   0  0  0  0  0  0  0  0  0  0  0  0
  141.7570  151.3951  132.8340 H   0  0  0  0  0  0  0  0  0  0  0  0
  140.2034  153.3536  132.4336 H   0  0  0  0  0  0  0  0  0  0  0  0
  140.8200  153.2186  134.1241 H   0  0  0  0  0  0  0  0  0  0  0  0
  142.5850  154.6570  133.1700 H   0  0  0  0  0  0  0  0  0  0  0  0
  1  2  1  0
  2  3  2  0
  2  4  1  0
  4  5  2  0
  5  6  1  0
  6  7  2  0
  7  8  1  0
  8  9  2  0
  9 10  1  0
 10 11  1  0
 11 12  2  0
 11 13  1  6
 11 14  1  0
  9 15  1  0
 15 16  2  0
 16 17  1  0
 17 18  1  0
 18 19  2  0
 18 20  1  0
 20 21  2  0
 20 22  1  0
 22 23  1  0
 23 24  1  0
 24 25  1  0
 25 26  2  0
 25 27  1  0
 27 28  1  0
 28 29  1  0
 29 30  1  0
 17  4  1  0
 16  6  1  0
  1 31  1  0
  5 32  1  0
  7 33  1  0
  8 34  1  0
 10 35  1  0
 10 36  1  0
 14 37  1  0
 15 38  1  0
 23 39  1  0
 23 40  1  0
 28 41  1  0
 28 42  1  0
 29 43  1  0
 29 44  1  0
 30 45  1  0
M  CHG  2   1  -1  13  -1
M  END
>  <UniqueID>  (5) 
5

>  <SMILES>  (5) 
[NH-]C(=O)c1cc2ccc(C[P@](=O)([O-])O)cc2n1C(=O)C(=O)OCOC(=O)OCCO

>  <Energy>  (5) 
69.82348812278585

>  <Genealogy>  (5) 
[NH-]C(=O)c1cc2ccc(CP(=O)([O-])O)cc2n1C(=O)C(=O)OCOC(=O)OCCO (protonated)
[NH-]C(=O)c1cc2ccc(C[P@](=O)([O-])O)cc2n1C(=O)C(=O)OCOC(=O)OCCO (chirality)
[NH-]C(=O)c1cc2ccc(C[P@](=O)([O-])O)cc2n1C(=O)C(=O)OCOC(=O)OCCO (3D coordinates assigned)
[NH-]C(=O)c1cc2ccc(C[P@](=O)([O-])O)cc2n1C(=O)C(=O)OCOC(=O)OCCO (optimized conformer: 69.82348812278585 kcal/mol)

>  <smiles>  (5) 
NC(=O)c1cc2ccc(CP(=O)(O)O)cc2n1C(=O)C(=O)OCOC(=O)OCCO

>  <score_type>  (5) 
oracle

>  <origin>  (5) 
adg

>  <m_score__min__energy>  (5) 
-4.9299999999999997

>  <m_primary>  (5) 
energy

$$$$
5:0
     RDKit          3D

 34 35  0  0  0  0  0  0  0  0999 V2000
  148.2440  155.1400  132.6350 C   0  0  0  0  0  0  0  0  0  0  0  0
  147.8630  156.5830  132.7870 C   0  0  0  0  0  0  0  0  0  0  0  0
  148.8630  157.5860  132.7720 C   0  0  0  0  0  0  0  0  0  0  0  0
  148.5240  158.9350  132.9630 C   0  0  0  0  0  0  0  0  0  0  0  0
  147.1840  159.2490  133.1690 C   0  0  0  0  0  0  0  0  0  0  0  0
  146.5870  160.4650  133.4130 C   0  0  0  0  0  0  0  0  0  0  0  0
  145.2300  160.1870  133.5660 C   0  0  0  0  0  0  0  0  0  0  0  0
  144.1930  161.2230  133.7610 C   0  0  0  0  0  0  0  0  0  0  0  0
  142.8250  160.8600  133.9530 N   0  0  0  0  0  0  0  0  0  0  0  0
  144.5130  162.4410  133.7920 O   0  0  0  0  0  0  0  0  0  0  0  0
  144.9970  158.8520  133.4230 N   0  0  0  0  0  0  0  0  0  0  0  0
  143.7490  158.1610  133.5890 C   0  0  0  0  0  0  0  0  0  0  0  0
  143.1690  157.6610  132.5870 O   0  0  0  0  0  0  0  0  0  0  0  0
  143.1870  158.0400  134.8650 O   0  0  0  0  0  0  0  0  0  0  0  0
  142.2170  157.0520  135.2130 C   0  0  0  0  0  0  0  0  0  0  0  0
  140.8250  157.6740  135.3890 C   0  0  0  0  0  0  0  0  0  0  0  0
  139.8810  156.8320  134.8250 F   0  0  0  0  0  0  0  0  0  0  0  0
  140.5350  157.8100  136.7350 F   0  0  0  0  0  0  0  0  0  0  0  0
  140.7550  159.0170  134.7240 C   0  0  0  0  0  0  0  0  0  0  0  0
  140.5340  159.1010  133.4880 O   0  0  0  0  0  0  0  0  0  0  0  0
  140.9920  160.1710  135.4590 O   0  0  0  0  0  0  0  0  0  0  0  0
  146.2040  158.2900  133.1820 C   0  0  0  0  0  0  0  0  0  0  0  0
  146.5150  156.9360  133.0140 C   0  0  0  0  0  0  0  0  0  0  0  0
  148.3640  154.6857  133.6296 H   0  0  0  0  0  0  0  0  0  0  0  0
  147.4553  154.6088  132.0820 H   0  0  0  0  0  0  0  0  0  0  0  0
  149.1921  155.0674  132.0820 H   0  0  0  0  0  0  0  0  0  0  0  0
  149.9142  157.3056  132.6093 H   0  0  0  0  0  0  0  0  0  0  0  0
  149.2944  159.7201  132.9502 H   0  0  0  0  0  0  0  0  0  0  0  0
  147.0771  161.4479  133.4742 H   0  0  0  0  0  0  0  0  0  0  0  0
  142.1060  161.5970  134.1280 H   0  0  0  0  0  0  0  0  0  0  0  0
  142.5120  159.8660  133.8810 H   0  0  0  0  0  0  0  0  0  0  0  0
  142.1733  156.2962  134.4150 H   0  0  0  0  0  0  0  0  0  0  0  0
  142.5155  156.5938  136.1675 H   0  0  0  0  0  0  0  0  0  0  0  0
  145.7298  156.1669  133.0577 H   0  0  0  0  0  0  0  0  0  0  0  0
  1  2  1  0
  2  3  2  0
  3  4  1  0
  4  5  2  0
  5  6  1  0
  6  7  2  0
  7  8  1  0
  8  9  1  0
  8 10  2  0
  7 11  1  0
 11 12  1  0
 12 13  2  0
 12 14  1  0
 14 15  1  0
 15 16  1  0
 16 17  1  0
 16 18  1  0
 16 19  1  0
 19 20  2  0
 19 21  1  0
 11 22  1  0
 22 23  2  0
 23  2  1  0
 22  5  1  0
  1 24  1  0
  1 25  1  0
  1 26  1  0
  3 27  1  0
  4 28  1  0
  6 29  1  0
  9 30  1  0
  9 31  1  0
 15 32  1  0
 15 33  1  0
 23 34  1  0
M  CHG  1  21  -1
M  END
>  <UniqueID>  (6) 
6

>  <SMILES>  (6) 
Cc1ccc2cc(C(N)=O)n(C(=O)OCC(F)(F)C(=O)[O-])c2c1

>  <Energy>  (6) 
68.80291008359315

>  <Genealogy>  (6) 
Cc1ccc2cc(C(N)=O)n(C(=O)OCC(F)(F)C(=O)[O-])c2c1 (protonated)
Cc1ccc2cc(C(N)=O)n(C(=O)OCC(F)(F)C(=O)[O-])c2c1 (3D coordinates assigned)
Cc1ccc2cc(C(N)=O)n(C(=O)OCC(F)(F)C(=O)[O-])c2c1 (optimized conformer: 68.80291008359315 kcal/mol)

>  <smiles>  (6) 
Cc1ccc2cc(C(N)=O)n(C(=O)OCC(F)(F)C(=O)O)c2c1

>  <score_type>  (6) 
oracle

>  <origin>  (6) 
adg

>  <m_score__min__energy>  (6) 
-6.5499999999999998

>  <m_primary>  (6) 
energy

$$$$
6:0
     RDKit          3D

 50 51  0  0  0  0  0  0  0  0999 V2000
  148.4620  154.7820  132.9850 C   0  0  0  0  0  0  0  0  0  0  0  0
  148.0520  156.2250  132.9720 C   0  0  0  0  0  0  0  0  0  0  0  0
  148.9880  157.2270  132.6140 C   0  0  0  0  0  0  0  0  0  0  0  0
  148.6190  158.5850  132.6150 C   0  0  0  0  0  0  0  0  0  0  0  0
  147.3210  158.9070  132.9980 C   0  0  0  0  0  0  0  0  0  0  0  0
  146.6920  160.1310  133.0640 C   0  0  0  0  0  0  0  0  0  0  0  0
  145.3960  159.8600  133.5060 C   0  0  0  0  0  0  0  0  0  0  0  0
  144.3690  160.8940  133.7740 C   0  0  0  0  0  0  0  0  0  0  0  0
  142.9760  160.6020  133.6380 N   0  0  0  0  0  0  0  0  0  0  0  0
  144.7150  162.0570  134.1130 O   0  0  0  0  0  0  0  0  0  0  0  0
  145.2380  158.5210  133.7120 N   0  0  0  0  0  0  0  0  0  0  0  0
  144.0340  157.8450  134.1120 C   0  0  0  0  0  0  0  0  0  0  0  0
  143.2950  158.3580  134.9930 O   0  0  0  0  0  0  0  0  0  0  0  0
  143.6650  156.5460  133.5320 C   0  0  0  0  0  0  0  0  0  0  0  0
  143.6120  156.4060  132.2820 O   0  0  0  0  0  0  0  0  0  0  0  0
  143.4080  155.4640  134.3770 O   0  0  0  0  0  0  0  0  0  0  0  0
  142.6540  155.5900  135.5800 C   0  0  0  0  0  0  0  0  0  0  0  0
  141.6290  156.5630  135.4060 O   0  0  0  0  0  0  0  0  0  0  0  0
  141.0900  157.2930  136.4700 C   0  0  0  0  0  0  0  0  0  0  0  0
  141.7100  157.3850  137.5640 O   0  0  0  0  0  0  0  0  0  0  0  0
  139.8230  157.9340  136.3060 N   0  0  0  0  0  0  0  0  0  0  0  0
  139.0510  157.8900  135.0660 C   0  0  0  0  0  0  0  0  0  0  0  0
  139.7240  158.7090  133.9500 C   0  0  1  0  0  0  0  0  0  0  0  0
  140.8260  159.3930  134.4920 O   0  0  0  0  0  0  0  0  0  0  0  0
  140.1570  157.8510  132.7270 C   0  0  1  0  0  0  0  0  0  0  0  0
  141.5540  157.9010  132.5800 O   0  0  0  0  0  0  0  0  0  0  0  0
  139.7150  156.3760  132.8110 C   0  0  0  0  0  0  0  0  0  0  0  0
  140.8130  155.5360  133.0680 O   0  0  0  0  0  0  0  0  0  0  0  0
  146.4170  157.9510  133.3880 C   0  0  0  0  0  0  0  0  0  0  0  0
  146.7480  156.5920  133.3730 C   0  0  0  0  0  0  0  0  0  0  0  0
  148.5598  154.4380  134.0252 H   0  0  0  0  0  0  0  0  0  0  0  0
  147.6995  154.1795  132.4697 H   0  0  0  0  0  0  0  0  0  0  0  0
  149.4274  154.6705  132.4697 H   0  0  0  0  0  0  0  0  0  0  0  0
  150.0122  156.9407  132.3328 H   0  0  0  0  0  0  0  0  0  0  0  0
  149.3346  159.3674  132.3221 H   0  0  0  0  0  0  0  0  0  0  0  0
  147.1206  161.1142  132.8199 H   0  0  0  0  0  0  0  0  0  0  0  0
  142.6370  159.6490  133.3790 H   0  0  0  0  0  0  0  0  0  0  0  0
  142.2670  161.3460  133.8280 H   0  0  0  0  0  0  0  0  0  0  0  0
  142.1987  154.6201  135.8291 H   0  0  0  0  0  0  0  0  0  0  0  0
  143.3209  155.9062  136.3957 H   0  0  0  0  0  0  0  0  0  0  0  0
  138.9627  156.8439  134.7374 H   0  0  0  0  0  0  0  0  0  0  0  0
  138.0600  158.3252  135.2622 H   0  0  0  0  0  0  0  0  0  0  0  0
  138.9793  159.4204  133.5636 H   0  0  0  0  0  0  0  0  0  0  0  0
  141.4020  158.7200  134.9390 H   0  0  0  0  0  0  0  0  0  0  0  0
  139.6489  158.2885  131.8549 H   0  0  0  0  0  0  0  0  0  0  0  0
  141.9480  157.5440  133.4210 H   0  0  0  0  0  0  0  0  0  0  0  0
  138.9801  156.2661  133.6221 H   0  0  0  0  0  0  0  0  0  0  0  0
  139.2703  156.0874  131.8472 H   0  0  0  0  0  0  0  0  0  0  0  0
  141.5900  156.1220  133.2650 H   0  0  0  0  0  0  0  0  0  0  0  0
  146.0120  155.8288  133.6659 H   0  0  0  0  0  0  0  0  0  0  0  0
  1  2  1  0
  2  3  2  0
  3  4  1  0
  4  5  2  0
  5  6  1  0
  6  7  2  0
  7  8  1  0
  8  9  1  0
  8 10  2  0
  7 11  1  0
 11 12  1  0
 12 13  2  0
 12 14  1  0
 14 15  2  0
 14 16  1  0
 16 17  1  0
 17 18  1  0
 18 19  1  0
 19 20  2  0
 19 21  1  0
 21 22  1  0
 22 23  1  0
 23 24  1  0
 23 25  1  0
 25 26  1  0
 25 27  1  0
 27 28  1  0
 11 29  1  0
 29 30  2  0
 30  2  1  0
 29  5  1  0
  1 31  1  0
  1 32  1  0
  1 33  1  0
  3 34  1  0
  4 35  1  0
  6 36  1  0
  9 37  1  0
  9 38  1  0
 17 39  1  0
 17 40  1  0
 22 41  1  0
 22 42  1  0
 23 43  1  6
 24 44  1  0
 25 45  1  6
 26 46  1  0
 27 47  1  0
 27 48  1  0
 28 49  1  0
 30 50  1  0
M  CHG  1  21  -1
M  END
>  <UniqueID>  (7) 
7

>  <SMILES>  (7) 
Cc1ccc2cc(C(N)=O)n(C(=O)C(=O)OCOC(=O)[N-]C[C@@H](O)[C@@H](O)CO)c2c1

>  <Energy>  (7) 
81.51579693323711

>  <Genealogy>  (7) 
Cc1ccc2cc(C(N)=O)n(C(=O)C(=O)OCOC(=O)[N-]C[C@@H](O)[C@@H](O)CO)c2c1 (protonated)
Cc1ccc2cc(C(N)=O)n(C(=O)C(=O)OCOC(=O)[N-]C[C@@H](O)[C@@H](O)CO)c2c1 (3D coordinates assigned)
Cc1ccc2cc(C(N)=O)n(C(=O)C(=O)OCOC(=O)[N-]C[C@@H](O)[C@@H](O)CO)c2c1 (optimized conformer: 81.51579693323711 kcal/mol)

>  <smiles>  (7) 
Cc1ccc2cc(C(N)=O)n(C(=O)C(=O)OCOC(=O)NC[C@@H](O)[C@@H](O)CO)c2c1

>  <score_type>  (7) 
oracle

>  <origin>  (7) 
adg

>  <m_score__min__energy>  (7) 
-6.6200000000000001

>  <m_primary>  (7) 
energy

$$$$
7:0
     RDKit          3D

 43 44  0  0  0  0  0  0  0  0999 V2000
  149.2480  161.9230  130.3580 C   0  0  0  0  0  0  0  0  0  0  0  0
  148.9680  160.6070  131.0200 C   0  0  0  0  0  0  0  0  0  0  0  0
  149.8580  159.5190  130.8450 C   0  0  0  0  0  0  0  0  0  0  0  0
  149.6210  158.2910  131.4870 C   0  0  0  0  0  0  0  0  0  0  0  0
  148.5000  158.1890  132.3070 C   0  0  0  0  0  0  0  0  0  0  0  0
  148.0190  157.1200  133.0300 C   0  0  0  0  0  0  0  0  0  0  0  0
  146.8640  157.5850  133.6550 C   0  0  0  0  0  0  0  0  0  0  0  0
  145.9760  156.7310  134.4710 C   0  0  0  0  0  0  0  0  0  0  0  0
  144.5580  156.7550  134.3080 N   0  0  0  0  0  0  0  0  0  0  0  0
  146.4800  155.9840  135.3510 O   0  0  0  0  0  0  0  0  0  0  0  0
  146.6330  158.8850  133.3170 N   0  0  0  0  0  0  0  0  0  0  0  0
  145.4980  159.6970  133.6460 C   0  0  0  0  0  0  0  0  0  0  0  0
  145.6740  160.8350  134.1530 O   0  0  0  0  0  0  0  0  0  0  0  0
  144.1670  159.2690  133.3400 N   0  0  0  0  0  0  0  0  0  0  0  0
  142.9780  160.1170  133.3870 C   0  0  0  0  0  0  0  0  0  0  0  0
  141.7880  159.4200  134.0610 C   0  0  0  0  0  0  0  0  0  0  0  0
  141.4480  158.0050  133.5280 C   0  0  0  0  0  0  0  0  0  0  0  0
  141.9920  156.8610  134.3000 N   0  0  0  0  0  0  0  0  0  0  0  0
  141.7480  156.9420  135.7480 C   0  0  0  0  0  0  0  0  0  0  0  0
  141.6460  155.5400  133.7570 C   0  0  0  0  0  0  0  0  0  0  0  0
  147.6420  159.2390  132.4970 C   0  0  0  0  0  0  0  0  0  0  0  0
  147.8480  160.4710  131.8690 C   0  0  0  0  0  0  0  0  0  0  0  0
  149.4117  162.6926  131.1267 H   0  0  0  0  0  0  0  0  0  0  0  0
  150.1473  161.8340  129.7308 H   0  0  0  0  0  0  0  0  0  0  0  0
  148.3903  162.2078  129.7308 H   0  0  0  0  0  0  0  0  0  0  0  0
  150.7422  159.6360  130.2012 H   0  0  0  0  0  0  0  0  0  0  0  0
  150.3000  157.4371  131.3460 H   0  0  0  0  0  0  0  0  0  0  0  0
  148.4546  156.1123  133.0993 H   0  0  0  0  0  0  0  0  0  0  0  0
  144.0860  157.5280  133.7920 H   0  0  0  0  0  0  0  0  0  0  0  0
  143.9630  156.0690  134.8250 H   0  0  0  0  0  0  0  0  0  0  0  0
  143.2178  161.0306  133.9508 H   0  0  0  0  0  0  0  0  0  0  0  0
  142.6889  160.3468  132.3508 H   0  0  0  0  0  0  0  0  0  0  0  0
  142.0115  159.3321  135.1345 H   0  0  0  0  0  0  0  0  0  0  0  0
  140.9097  160.0435  133.8379 H   0  0  0  0  0  0  0  0  0  0  0  0
  140.3524  157.9075  133.5125 H   0  0  0  0  0  0  0  0  0  0  0  0
  141.9249  157.9431  132.5387 H   0  0  0  0  0  0  0  0  0  0  0  0
  142.6563  156.6405  136.2903 H   0  0  0  0  0  0  0  0  0  0  0  0
  141.4856  157.9755  136.0184 H   0  0  0  0  0  0  0  0  0  0  0  0
  140.9196  156.2707  136.0184 H   0  0  0  0  0  0  0  0  0  0  0  0
  141.4626  154.8397  134.5852 H   0  0  0  0  0  0  0  0  0  0  0  0
  140.7394  155.6233  133.1397 H   0  0  0  0  0  0  0  0  0  0  0  0
  142.4770  155.1682  133.1397 H   0  0  0  0  0  0  0  0  0  0  0  0
  147.1568  161.3110  132.0318 H   0  0  0  0  0  0  0  0  0  0  0  0
  1  2  1  0
  2  3  2  0
  3  4  1  0
  4  5  2  0
  5  6  1  0
  6  7  2  0
  7  8  1  0
  8  9  1  0
  8 10  2  0
  7 11  1  0
 11 12  1  0
 12 13  2  0
 12 14  1  0
 14 15  1  0
 15 16  1  0
 16 17  1  0
 17 18  1  0
 18 19  1  0
 18 20  1  0
 11 21  1  0
 21 22  2  0
 22  2  1  0
 21  5  1  0
  1 23  1  0
  1 24  1  0
  1 25  1  0
  3 26  1  0
  4 27  1  0
  6 28  1  0
  9 29  1  0
  9 30  1  0
 15 31  1  0
 15 32  1  0
 16 33  1  0
 16 34  1  0
 17 35  1  0
 17 36  1  0
 19 37  1  0
 19 38  1  0
 19 39  1  0
 20 40  1  0
 20 41  1  0
 20 42  1  0
 22 43  1  0
M  CHG  1  14  -1
M  END
>  <UniqueID>  (8) 
8

>  <SMILES>  (8) 
Cc1ccc2cc(C(N)=O)n(C(=O)[N-]CCCN(C)C)c2c1

>  <Energy>  (8) 
86.01395398325923

>  <Genealogy>  (8) 
Cc1ccc2cc(C(N)=O)n(C(=O)[N-]CCCN(C)C)c2c1 (protonated)
Cc1ccc2cc(C(N)=O)n(C(=O)[N-]CCCN(C)C)c2c1 (3D coordinates assigned)
Cc1ccc2cc(C(N)=O)n(C(=O)[N-]CCCN(C)C)c2c1 (optimized conformer: 86.01395398325923 kcal/mol)

>  <smiles>  (8) 
Cc1ccc2cc(C(N)=O)n(C(=O)NCCCN(C)C)c2c1

>  <score_type>  (8) 
oracle

>  <origin>  (8) 
adg

>  <m_score__min__energy>  (8) 
-6.9800000000000004

>  <m_primary>  (8) 
energy

$$$$
8:0
     RDKit          3D

 36 37  0  0  0  0  0  0  0  0999 V2000
  140.7720  156.5050  133.0980 N   0  0  0  0  0  0  0  0  0  0  0  0
  141.2800  157.4030  134.0820 C   0  0  0  0  0  0  0  0  0  0  0  0
  140.5580  157.7100  135.0670 O   0  0  0  0  0  0  0  0  0  0  0  0
  142.6540  157.9330  133.9550 C   0  0  0  0  0  0  0  0  0  0  0  0
  142.9450  159.2880  133.8090 C   0  0  0  0  0  0  0  0  0  0  0  0
  144.3090  159.3530  133.6450 C   0  0  0  0  0  0  0  0  0  0  0  0
  145.1360  160.4570  133.4590 C   0  0  0  0  0  0  0  0  0  0  0  0
  146.5180  160.2310  133.3400 C   0  0  0  0  0  0  0  0  0  0  0  0
  147.0500  158.9200  133.4340 C   0  0  0  0  0  0  0  0  0  0  0  0
  148.5320  158.6910  133.2680 C   0  0  0  0  0  0  0  0  0  0  0  0
  149.2080  158.9830  134.4390 F   0  0  0  0  0  0  0  0  0  0  0  0
  148.7530  157.3670  132.9390 F   0  0  0  0  0  0  0  0  0  0  0  0
  149.0370  159.4970  132.2640 F   0  0  0  0  0  0  0  0  0  0  0  0
  146.1730  157.8220  133.6000 C   0  0  0  0  0  0  0  0  0  0  0  0
  144.7990  158.0750  133.6970 C   0  0  0  0  0  0  0  0  0  0  0  0
  143.7960  157.1900  133.8880 N   0  0  0  0  0  0  0  0  0  0  0  0
  143.9320  155.7690  134.0470 C   0  0  0  0  0  0  0  0  0  0  0  0
  143.2790  154.9870  133.3040 O   0  0  0  0  0  0  0  0  0  0  0  0
  144.8010  155.2430  135.0560 N   0  0  0  0  0  0  0  0  0  0  0  0
  145.9500  154.3940  134.7630 C   0  0  0  0  0  0  0  0  0  0  0  0
  146.9410  154.4190  135.8960 C   0  0  0  0  0  0  0  0  0  0  0  0
  147.7750  155.3610  135.9700 O   0  0  0  0  0  0  0  0  0  0  0  0
  147.0140  153.3600  136.8580 N   0  0  0  0  0  0  0  0  0  0  0  0
  148.2330  152.9550  137.5460 C   0  0  0  0  0  0  0  0  0  0  0  0
  148.4350  153.8230  138.7410 C   0  0  0  0  0  0  0  0  0  0  0  0
  149.5510  154.3700  138.9450 O   0  0  0  0  0  0  0  0  0  0  0  0
  147.3790  154.0690  139.6100 O   0  0  0  0  0  0  0  0  0  0  0  0
  141.4030  155.8280  132.6130 H   0  0  0  0  0  0  0  0  0  0  0  0
  142.2344  160.1276  133.8221 H   0  0  0  0  0  0  0  0  0  0  0  0
  144.7210  161.4744  133.4068 H   0  0  0  0  0  0  0  0  0  0  0  0
  147.1952  161.0814  133.1719 H   0  0  0  0  0  0  0  0  0  0  0  0
  146.5613  156.7941  133.6516 H   0  0  0  0  0  0  0  0  0  0  0  0
  145.6044  153.3610  134.6099 H   0  0  0  0  0  0  0  0  0  0  0  0
  146.4441  154.7730  133.8562 H   0  0  0  0  0  0  0  0  0  0  0  0
  148.1441  151.9059  137.8645 H   0  0  0  0  0  0  0  0  0  0  0  0
  149.0917  153.0577  136.8662 H   0  0  0  0  0  0  0  0  0  0  0  0
  1  2  1  0
  2  3  2  0
  2  4  1  0
  4  5  2  0
  5  6  1  0
  6  7  2  0
  7  8  1  0
  8  9  2  0
  9 10  1  0
 10 11  1  0
 10 12  1  0
 10 13  1  0
  9 14  1  0
 14 15  2  0
 15 16  1  0
 16 17  1  0
 17 18  2  0
 17 19  1  0
 19 20  1  0
 20 21  1  0
 21 22  2  0
 21 23  1  0
 23 24  1  0
 24 25  1  0
 25 26  2  0
 25 27  1  0
 16  4  1  0
 15  6  1  0
  1 28  1  0
  5 29  1  0
  7 30  1  0
  8 31  1  0
 14 32  1  0
 20 33  1  0
 20 34  1  0
 24 35  1  0
 24 36  1  0
M  CHG  4   1  -1  19  -1  23  -1  27  -1
M  END
>  <UniqueID>  (9) 
9

>  <SMILES>  (9) 
[NH-]C(=O)c1cc2ccc(C(F)(F)F)cc2n1C(=O)[N-]CC(=O)[N-]CC(=O)[O-]

>  <Energy>  (9) 
70.55705523666889

>  <Genealogy>  (9) 
[NH-]C(=O)c1cc2ccc(C(F)(F)F)cc2n1C(=O)[N-]CC(=O)[N-]CC(=O)[O-] (protonated)
[NH-]C(=O)c1cc2ccc(C(F)(F)F)cc2n1C(=O)[N-]CC(=O)[N-]CC(=O)[O-] (3D coordinates assigned)
[NH-]C(=O)c1cc2ccc(C(F)(F)F)cc2n1C(=O)[N-]CC(=O)[N-]CC(=O)[O-] (optimized conformer: 70.55705523666889 kcal/mol)

>  <smiles>  (9) 
NC(=O)c1cc2ccc(C(F)(F)F)cc2n1C(=O)NCC(=O)NCC(=O)O

>  <score_type>  (9) 
oracle

>  <origin>  (9) 
adg

>  <m_score__min__energy>  (9) 
-6.8200000000000003

>  <m_primary>  (9) 
energy

$$$$
9:0
     RDKit          3D

 37 38  0  0  0  0  0  0  0  0999 V2000
  149.5940  162.1180  130.2770 C   0  0  0  0  0  0  0  0  0  0  0  0
  149.7130  160.7510  130.8070 N   0  0  0  0  0  0  0  0  0  0  0  0
  149.6010  159.7840  129.7010 C   0  0  0  0  0  0  0  0  0  0  0  0
  148.6780  160.5070  131.8360 C   0  0  0  0  0  0  0  0  0  0  0  0
  148.9860  159.2460  132.6550 C   0  0  0  0  0  0  0  0  0  0  0  0
  147.7230  158.5770  133.1290 C   0  0  0  0  0  0  0  0  0  0  0  0
  146.4700  159.2220  132.9690 C   0  0  0  0  0  0  0  0  0  0  0  0
  145.2840  158.5940  133.3820 C   0  0  0  0  0  0  0  0  0  0  0  0
  145.3780  157.3190  133.9330 C   0  0  0  0  0  0  0  0  0  0  0  0
  144.3960  156.4930  134.4310 C   0  0  0  0  0  0  0  0  0  0  0  0
  145.0620  155.3450  134.8600 C   0  0  0  0  0  0  0  0  0  0  0  0
  144.3810  154.1640  135.4310 C   0  0  0  0  0  0  0  0  0  0  0  0
  144.2850  154.0140  136.8450 N   0  0  0  0  0  0  0  0  0  0  0  0
  143.8670  153.2920  134.6820 O   0  0  0  0  0  0  0  0  0  0  0  0
  146.4010  155.4580  134.6310 N   0  0  0  0  0  0  0  0  0  0  0  0
  147.4290  154.5140  134.9680 C   0  0  0  0  0  0  0  0  0  0  0  0
  148.1730  154.0510  134.0620 O   0  0  0  0  0  0  0  0  0  0  0  0
  147.6320  154.0830  136.3590 C   0  0  0  0  0  0  0  0  0  0  0  0
  146.9880  153.1060  136.8240 O   0  0  0  0  0  0  0  0  0  0  0  0
  148.5240  154.7660  137.1760 O   0  0  0  0  0  0  0  0  0  0  0  0
  146.5790  156.6730  134.0700 C   0  0  0  0  0  0  0  0  0  0  0  0
  147.7780  157.2810  133.6870 C   0  0  0  0  0  0  0  0  0  0  0  0
  149.5319  162.8310  131.1123 H   0  0  0  0  0  0  0  0  0  0  0  0
  150.4753  162.3505  129.6612 H   0  0  0  0  0  0  0  0  0  0  0  0
  148.6858  162.1947  129.6612 H   0  0  0  0  0  0  0  0  0  0  0  0
  149.4836  158.7700  130.1110 H   0  0  0  0  0  0  0  0  0  0  0  0
  148.7257  160.0333  129.0832 H   0  0  0  0  0  0  0  0  0  0  0  0
  150.5101  159.8267  129.0832 H   0  0  0  0  0  0  0  0  0  0  0  0
  148.6368  161.3723  132.5138 H   0  0  0  0  0  0  0  0  0  0  0  0
  147.7133  160.3616  131.3278 H   0  0  0  0  0  0  0  0  0  0  0  0
  149.5508  158.5408  132.0276 H   0  0  0  0  0  0  0  0  0  0  0  0
  149.5737  159.5408  133.5369 H   0  0  0  0  0  0  0  0  0  0  0  0
  146.4269  160.2239  132.5170 H   0  0  0  0  0  0  0  0  0  0  0  0
  144.3103  159.0942  133.2735 H   0  0  0  0  0  0  0  0  0  0  0  0
  143.3159  156.6952  134.4802 H   0  0  0  0  0  0  0  0  0  0  0  0
  145.1270  154.1130  137.4540 H   0  0  0  0  0  0  0  0  0  0  0  0
  148.7397  156.7632  133.8169 H   0  0  0  0  0  0  0  0  0  0  0  0
  1  2  1  0
  2  3  1  0
  2  4  1  0
  4  5  1  0
  5  6  1  0
  6  7  2  0
  7  8  1  0
  8  9  2  0
  9 10  1  0
 10 11  2  0
 11 12  1  0
 12 13  1  0
 12 14  2  0
 11 15  1  0
 15 16  1  0
 16 17  2  0
 16 18  1  0
 18 19  2  0
 18 20  1  0
 15 21  1  0
 21 22  2  0
 22  6  1  0
 21  9  1  0
  1 23  1  0
  1 24  1  0
  1 25  1  0
  3 26  1  0
  3 27  1  0
  3 28  1  0
  4 29  1  0
  4 30  1  0
  5 31  1  0
  5 32  1  0
  7 33  1  0
  8 34  1  0
 10 35  1  0
 13 36  1  0
 22 37  1  0
M  CHG  2  13  -1  20  -1
M  END
>  <UniqueID>  (10) 
10

>  <SMILES>  (10) 
CN(C)CCc1ccc2cc(C([NH-])=O)n(C(=O)C(=O)[O-])c2c1

>  <Energy>  (10) 
73.75097779431663

>  <Genealogy>  (10) 
CN(C)CCc1ccc2cc(C([NH-])=O)n(C(=O)C(=O)[O-])c2c1 (protonated)
CN(C)CCc1ccc2cc(C([NH-])=O)n(C(=O)C(=O)[O-])c2c1 (3D coordinates assigned)
CN(C)CCc1ccc2cc(C([NH-])=O)n(C(=O)C(=O)[O-])c2c1 (optimized conformer: 73.75097779431663 kcal/mol)

>  <smiles>  (10) 
CN(C)CCc1ccc2cc(C(N)=O)n(C(=O)C(=O)O)c2c1

>  <score_type>  (10) 
oracle

>  <origin>  (10) 
adg

>  <m_score__min__energy>  (10) 
-6.96

>  <m_primary>  (10) 
energy

$$$$
10:0
     RDKit          3D

 38 39  0  0  0  0  0  0  0  0999 V2000
  139.8920  149.3890  132.8680 C   0  0  0  0  0  0  0  0  0  0  0  0
  141.0020  150.3980  132.8260 C   0  0  0  0  0  0  0  0  0  0  0  0
  142.3380  149.9680  132.6430 C   0  0  0  0  0  0  0  0  0  0  0  0
  143.3910  150.8970  132.6170 C   0  0  0  0  0  0  0  0  0  0  0  0
  143.0790  152.2410  132.8030 C   0  0  0  0  0  0  0  0  0  0  0  0
  143.8970  153.3480  132.7880 C   0  0  0  0  0  0  0  0  0  0  0  0
  143.0520  154.4320  133.0050 C   0  0  0  0  0  0  0  0  0  0  0  0
  143.5320  155.8250  133.1200 C   0  0  0  0  0  0  0  0  0  0  0  0
  142.7750  156.9150  132.5900 N   0  0  0  0  0  0  0  0  0  0  0  0
  144.6020  156.0620  133.7420 O   0  0  0  0  0  0  0  0  0  0  0  0
  141.7610  154.0180  133.1400 N   0  0  0  0  0  0  0  0  0  0  0  0
  140.5880  154.8450  133.2260 C   0  0  0  0  0  0  0  0  0  0  0  0
  139.5150  154.4770  132.6780 O   0  0  0  0  0  0  0  0  0  0  0  0
  140.6450  156.0590  133.9160 O   0  0  0  0  0  0  0  0  0  0  0  0
  139.5030  156.8800  134.1400 C   0  0  0  0  0  0  0  0  0  0  0  0
  139.2870  157.7480  133.0280 O   0  0  0  0  0  0  0  0  0  0  0  0
  140.2330  158.6860  132.6000 C   0  0  0  0  0  0  0  0  0  0  0  0
  140.9820  158.4270  131.6190 O   0  0  0  0  0  0  0  0  0  0  0  0
  140.4380  159.9460  133.3360 C   0  0  0  0  0  0  0  0  0  0  0  0
  141.6140  160.4060  133.7900 C   0  0  0  0  0  0  0  0  0  0  0  0
  142.8720  159.6420  133.8570 C   0  0  0  0  0  0  0  0  0  0  0  0
  143.8320  159.8960  133.0840 O   0  0  0  0  0  0  0  0  0  0  0  0
  142.9620  158.5560  134.7180 O   0  0  0  0  0  0  0  0  0  0  0  0
  141.7930  152.6720  133.0160 C   0  0  0  0  0  0  0  0  0  0  0  0
  140.7230  151.7680  133.0220 C   0  0  0  0  0  0  0  0  0  0  0  0
  139.6423  149.1620  133.9149 H   0  0  0  0  0  0  0  0  0  0  0  0
  139.0059  149.7973  132.3599 H   0  0  0  0  0  0  0  0  0  0  0  0
  140.2142  148.4681  132.3599 H   0  0  0  0  0  0  0  0  0  0  0  0
  142.5536  148.8964  132.5200 H   0  0  0  0  0  0  0  0  0  0  0  0
  144.4296  150.5729  132.4548 H   0  0  0  0  0  0  0  0  0  0  0  0
  144.9863  153.3708  132.6367 H   0  0  0  0  0  0  0  0  0  0  0  0
  141.8110  156.7710  132.2200 H   0  0  0  0  0  0  0  0  0  0  0  0
  143.1520  157.8870  132.6410 H   0  0  0  0  0  0  0  0  0  0  0  0
  138.6186  156.2406  134.2775 H   0  0  0  0  0  0  0  0  0  0  0  0
  139.6733  157.4894  135.0398 H   0  0  0  0  0  0  0  0  0  0  0  0
  139.5489  160.5638  133.5303 H   0  0  0  0  0  0  0  0  0  0  0  0
  141.6412  161.4471  134.1440 H   0  0  0  0  0  0  0  0  0  0  0  0
  139.6912  152.1168  133.1756 H   0  0  0  0  0  0  0  0  0  0  0  0
  1  2  1  0
  2  3  2  0
  3  4  1  0
  4  5  2  0
  5  6  1  0
  6  7  2  0
  7  8  1  0
  8  9  1  0
  8 10  2  0
  7 11  1  0
 11 12  1  0
 12 13  2  0
 12 14  1  0
 14 15  1  0
 15 16  1  0
 16 17  1  0
 17 18  2  0
 17 19  1  0
 19 20  2  3
 20 21  1  0
 21 22  2  0
 21 23  1  0
 11 24  1  0
 24 25  2  0
 25  2  1  0
 24  5  1  0
  1 26  1  0
  1 27  1  0
  1 28  1  0
  3 29  1  0
  4 30  1  0
  6 31  1  0
  9 32  1  0
  9 33  1  0
 15 34  1  0
 15 35  1  0
 19 36  1  0
 20 37  1  0
 25 38  1  0
M  CHG  1  23  -1
M  END
>  <UniqueID>  (11) 
11

>  <SMILES>  (11) 
Cc1ccc2cc(C(N)=O)n(C(=O)OCOC(=O)C=CC(=O)[O-])c2c1

>  <Energy>  (11) 
78.09819130587934

>  <Genealogy>  (11) 
Cc1ccc2cc(C(N)=O)n(C(=O)OCOC(=O)C=CC(=O)[O-])c2c1 (protonated)
Cc1ccc2cc(C(N)=O)n(C(=O)OCOC(=O)C=CC(=O)[O-])c2c1 (3D coordinates assigned)
Cc1ccc2cc(C(N)=O)n(C(=O)OCOC(=O)C=CC(=O)[O-])c2c1 (optimized conformer: 78.09819130587934 kcal/mol)

>  <smiles>  (11) 
Cc1ccc2cc(C(N)=O)n(C(=O)OCOC(=O)C=CC(=O)O)c2c1

>  <score_type>  (11) 
oracle

>  <origin>  (11) 
adg

>  <m_score__min__energy>  (11) 
-6.4800000000000004

>  <m_primary>  (11) 
energy

$$$$
11:0
     RDKit          3D

 40 41  0  0  0  0  0  0  0  0999 V2000
  141.1010  153.2500  137.8200 C   0  0  0  0  0  0  0  0  0  0  0  0
  141.4760  151.8610  137.3110 C   0  0  2  0  0  0  0  0  0  0  0  0
  141.3520  151.8530  135.9020 O   0  0  0  0  0  0  0  0  0  0  0  0
  142.3160  153.0940  135.2220 P   0  0  2  0  0  0  0  0  0  0  0  0
  142.7820  152.7060  133.8340 O   0  0  0  0  0  0  0  0  0  0  0  0
  143.6650  153.3660  136.2060 O   0  0  0  0  0  0  0  0  0  0  0  0
  141.4160  154.5400  135.1220 O   0  0  0  0  0  0  0  0  0  0  0  0
  141.3330  154.9150  133.7670 C   0  0  0  0  0  0  0  0  0  0  0  0
  140.2330  155.9170  133.5950 C   0  0  0  0  0  0  0  0  0  0  0  0
  139.1760  155.5820  132.9940 O   0  0  0  0  0  0  0  0  0  0  0  0
  140.3780  157.2580  134.0900 N   0  0  0  0  0  0  0  0  0  0  0  0
  140.2910  158.4190  133.3810 C   0  0  0  0  0  0  0  0  0  0  0  0
  139.9050  158.5420  131.9590 C   0  0  0  0  0  0  0  0  0  0  0  0
  138.7300  157.9080  131.4580 N   0  0  0  0  0  0  0  0  0  0  0  0
  140.6050  159.2440  131.1800 O   0  0  0  0  0  0  0  0  0  0  0  0
  140.5510  159.5140  134.2030 C   0  0  0  0  0  0  0  0  0  0  0  0
  140.8030  158.9830  135.4490 C   0  0  0  0  0  0  0  0  0  0  0  0
  141.1180  159.6180  136.6450 C   0  0  0  0  0  0  0  0  0  0  0  0
  141.3460  158.8180  137.7750 C   0  0  0  0  0  0  0  0  0  0  0  0
  141.2820  157.4020  137.6870 C   0  0  0  0  0  0  0  0  0  0  0  0
  141.4740  156.5550  138.9210 C   0  0  0  0  0  0  0  0  0  0  0  0
  142.5000  155.6440  138.7370 F   0  0  0  0  0  0  0  0  0  0  0  0
  140.3190  155.8510  139.2150 F   0  0  0  0  0  0  0  0  0  0  0  0
  141.7850  157.3750  139.9900 F   0  0  0  0  0  0  0  0  0  0  0  0
  140.9430  156.7960  136.4550 C   0  0  0  0  0  0  0  0  0  0  0  0
  140.6990  157.6200  135.3510 C   0  0  0  0  0  0  0  0  0  0  0  0
  140.5570  150.8410  137.9270 C   0  0  0  0  0  0  0  0  0  0  0  0
  140.4360  150.7650  139.1810 O   0  0  0  0  0  0  0  0  0  0  0  0
  139.8650  149.9500  137.1160 O   0  0  0  0  0  0  0  0  0  0  0  0
  141.1011  153.2498  138.9200 H   0  0  0  0  0  0  0  0  0  0  0  0
  141.8329  153.9848  137.4534 H   0  0  0  0  0  0  0  0  0  0  0  0
  140.0987  153.5166  137.4534 H   0  0  0  0  0  0  0  0  0  0  0  0
  142.5110  151.6125  137.5886 H   0  0  0  0  0  0  0  0  0  0  0  0
  142.2878  155.3600  133.4501 H   0  0  0  0  0  0  0  0  0  0  0  0
  141.1214  154.0277  133.1523 H   0  0  0  0  0  0  0  0  0  0  0  0
  138.1800  157.2500  132.0520 H   0  0  0  0  0  0  0  0  0  0  0  0
  140.5543  160.5763  133.9176 H   0  0  0  0  0  0  0  0  0  0  0  0
  141.1864  160.7143  136.7037 H   0  0  0  0  0  0  0  0  0  0  0  0
  141.5769  159.2930  138.7399 H   0  0  0  0  0  0  0  0  0  0  0  0
  140.8727  155.7018  136.3668 H   0  0  0  0  0  0  0  0  0  0  0  0
  1  2  1  0
  2  3  1  0
  3  4  1  0
  4  5  2  0
  4  6  1  1
  4  7  1  0
  7  8  1  0
  8  9  1  0
  9 10  2  0
  9 11  1  0
 11 12  1  0
 12 13  1  0
 13 14  1  0
 13 15  2  0
 12 16  2  0
 16 17  1  0
 17 18  2  0
 18 19  1  0
 19 20  2  0
 20 21  1  0
 21 22  1  0
 21 23  1  0
 21 24  1  0
 20 25  1  0
 25 26  2  0
  2 27  1  0
 27 28  2  0
 27 29  1  0
 26 11  1  0
 26 17  1  0
  1 30  1  0
  1 31  1  0
  1 32  1  0
  2 33  1  6
  8 34  1  0
  8 35  1  0
 14 36  1  0
 16 37  1  0
 18 38  1  0
 19 39  1  0
 25 40  1  0
M  CHG  3   6  -1  14  -1  29  -1
M  END
>  <UniqueID>  (12) 
12

>  <SMILES>  (12) 
C[C@H](O[P@](=O)([O-])OCC(=O)n1c(C([NH-])=O)cc2ccc(C(F)(F)F)cc21)C(=O)[O-]

>  <Energy>  (12) 
76.9193951581868

>  <Genealogy>  (12) 
CC(OP(=O)([O-])OCC(=O)n1c(C([NH-])=O)cc2ccc(C(F)(F)F)cc21)C(=O)[O-] (protonated)
C[C@H](O[P@](=O)([O-])OCC(=O)n1c(C([NH-])=O)cc2ccc(C(F)(F)F)cc21)C(=O)[O-] (chirality)
C[C@H](O[P@](=O)([O-])OCC(=O)n1c(C([NH-])=O)cc2ccc(C(F)(F)F)cc21)C(=O)[O-] (3D coordinates assigned)
C[C@H](O[P@](=O)([O-])OCC(=O)n1c(C([NH-])=O)cc2ccc(C(F)(F)F)cc21)C(=O)[O-] (optimized conformer: 76.9193951581868 kcal/mol)

>  <smiles>  (12) 
CC(OP(=O)(O)OCC(=O)n1c(C(N)=O)cc2ccc(C(F)(F)F)cc21)C(=O)O

>  <score_type>  (12) 
oracle

>  <origin>  (12) 
adg

>  <m_score__min__energy>  (12) 
-7.0499999999999998

>  <m_primary>  (12) 
energy

$$$$
12:0
     RDKit          3D

 38 39  0  0  0  0  0  0  0  0999 V2000
  149.2120  159.6030  131.3690 C   0  0  0  0  0  0  0  0  0  0  0  0
  149.0280  158.5190  132.1210 C   0  0  0  0  0  0  0  0  0  0  0  0
  148.2830  158.5540  133.3930 C   0  0  0  0  0  0  0  0  0  0  0  0
  148.8360  158.9720  134.4470 O   0  0  0  0  0  0  0  0  0  0  0  0
  146.9190  158.1080  133.4390 N   0  0  0  0  0  0  0  0  0  0  0  0
  145.7940  158.8750  133.5170 C   0  0  0  0  0  0  0  0  0  0  0  0
  145.7550  160.3410  133.7020 C   0  0  0  0  0  0  0  0  0  0  0  0
  146.9540  161.1120  133.7260 N   0  0  0  0  0  0  0  0  0  0  0  0
  144.6480  160.9180  133.8760 O   0  0  0  0  0  0  0  0  0  0  0  0
  144.6550  158.0750  133.4530 C   0  0  0  0  0  0  0  0  0  0  0  0
  145.1190  156.7850  133.3350 C   0  0  0  0  0  0  0  0  0  0  0  0
  144.4180  155.5890  133.2080 C   0  0  0  0  0  0  0  0  0  0  0  0
  145.1600  154.4040  133.0620 C   0  0  0  0  0  0  0  0  0  0  0  0
  146.5790  154.4340  133.0440 C   0  0  0  0  0  0  0  0  0  0  0  0
  147.3280  153.2170  132.8500 N   0  0  0  0  0  0  0  0  0  0  0  0
  148.7700  153.4980  132.9310 C   0  0  0  0  0  0  0  0  0  0  0  0
  149.6110  152.3820  132.2870 C   0  0  0  0  0  0  0  0  0  0  0  0
  149.1760  150.9830  132.7260 C   0  0  0  0  0  0  0  0  0  0  0  0
  147.8070  150.8230  132.4750 O   0  0  0  0  0  0  0  0  0  0  0  0
  147.2530  155.6720  133.1630 C   0  0  0  0  0  0  0  0  0  0  0  0
  146.4880  156.8320  133.3270 C   0  0  0  0  0  0  0  0  0  0  0  0
  149.7749  159.5297  130.4268 H   0  0  0  0  0  0  0  0  0  0  0  0
  148.8011  160.5715  131.6903 H   0  0  0  0  0  0  0  0  0  0  0  0
  149.4479  157.5611  131.7800 H   0  0  0  0  0  0  0  0  0  0  0  0
  147.7520  160.8440  134.3420 H   0  0  0  0  0  0  0  0  0  0  0  0
  143.6063  158.4050  133.4892 H   0  0  0  0  0  0  0  0  0  0  0  0
  143.3182  155.5718  133.2214 H   0  0  0  0  0  0  0  0  0  0  0  0
  144.6351  153.4427  132.9606 H   0  0  0  0  0  0  0  0  0  0  0  0
  147.0930  152.8160  131.9130 H   0  0  0  0  0  0  0  0  0  0  0  0
  147.0580  152.5180  133.5800 H   0  0  0  0  0  0  0  0  0  0  0  0
  148.9773  154.4445  132.4103 H   0  0  0  0  0  0  0  0  0  0  0  0
  149.0451  153.5607  133.9942 H   0  0  0  0  0  0  0  0  0  0  0  0
  149.5120  152.4538  131.1938 H   0  0  0  0  0  0  0  0  0  0  0  0
  150.6522  152.5223  132.6129 H   0  0  0  0  0  0  0  0  0  0  0  0
  149.7435  150.2280  132.1621 H   0  0  0  0  0  0  0  0  0  0  0  0
  149.3703  150.8575  133.8014 H   0  0  0  0  0  0  0  0  0  0  0  0
  147.4030  150.5240  133.3310 H   0  0  0  0  0  0  0  0  0  0  0  0
  148.3513  155.7215  133.1275 H   0  0  0  0  0  0  0  0  0  0  0  0
  1  2  2  0
  2  3  1  0
  3  4  2  0
  3  5  1  0
  5  6  1  0
  6  7  1  0
  7  8  1  0
  7  9  2  0
  6 10  2  0
 10 11  1  0
 11 12  2  0
 12 13  1  0
 13 14  2  0
 14 15  1  0
 15 16  1  0
 16 17  1  0
 17 18  1  0
 18 19  1  0
 14 20  1  0
 20 21  2  0
 21  5  1  0
 21 11  1  0
  1 22  1  0
  1 23  1  0
  2 24  1  0
  8 25  1  0
 10 26  1  0
 12 27  1  0
 13 28  1  0
 15 29  1  0
 15 30  1  0
 16 31  1  0
 16 32  1  0
 17 33  1  0
 17 34  1  0
 18 35  1  0
 18 36  1  0
 19 37  1  0
 20 38  1  0
M  CHG  2   8  -1  15   1
M  END
>  <UniqueID>  (13) 
13

>  <SMILES>  (13) 
C=CC(=O)n1c(C([NH-])=O)cc2ccc([NH2+]CCCO)cc21

>  <Energy>  (13) 
72.91472360583441

>  <Genealogy>  (13) 
C=CC(=O)n1c(C([NH-])=O)cc2ccc([NH2+]CCCO)cc21 (protonated)
C=CC(=O)n1c(C([NH-])=O)cc2ccc([NH2+]CCCO)cc21 (3D coordinates assigned)
C=CC(=O)n1c(C([NH-])=O)cc2ccc([NH2+]CCCO)cc21 (optimized conformer: 72.91472360583441 kcal/mol)

>  <smiles>  (13) 
C=CC(=O)n1c(C(N)=O)cc2ccc(NCCCO)cc21

>  <score_type>  (13) 
oracle

>  <origin>  (13) 
adg

>  <m_score__min__energy>  (13) 
-6.3300000000000001

>  <m_primary>  (13) 
energy

$$$$
13:0
     RDKit          3D

 43 44  0  0  0  0  0  0  0  0999 V2000
  140.9500  159.7480  132.2210 N   0  0  0  0  0  0  0  0  0  0  0  0
  141.2070  160.1210  133.5730 C   0  0  0  0  0  0  0  0  0  0  0  0
  141.3530  161.3390  133.8590 O   0  0  0  0  0  0  0  0  0  0  0  0
  141.3180  159.0810  134.6160 C   0  0  0  0  0  0  0  0  0  0  0  0
  140.5940  159.0950  135.8070 C   0  0  0  0  0  0  0  0  0  0  0  0
  140.9540  157.9400  136.4680 C   0  0  0  0  0  0  0  0  0  0  0  0
  140.5470  157.4480  137.7040 C   0  0  0  0  0  0  0  0  0  0  0  0
  141.1050  156.2350  138.1470 C   0  0  0  0  0  0  0  0  0  0  0  0
  142.0670  155.5540  137.3590 C   0  0  0  0  0  0  0  0  0  0  0  0
  142.6400  154.2440  137.8290 C   0  0  0  0  0  0  0  0  0  0  0  0
  142.2860  153.1240  136.8490 C   0  0  0  0  0  0  0  0  0  0  0  0
  141.2590  151.8620  137.6610 P   0  0  0  0  0  0  0  0  0  0  0  0
  142.1110  151.0650  138.6220 O   0  0  0  0  0  0  0  0  0  0  0  0
  140.6060  150.8220  136.4970 O   0  0  0  0  0  0  0  0  0  0  0  0
  140.0040  152.6090  138.5140 O   0  0  0  0  0  0  0  0  0  0  0  0
  142.4490  156.0800  136.1060 C   0  0  0  0  0  0  0  0  0  0  0  0
  141.8610  157.2760  135.6830 C   0  0  0  0  0  0  0  0  0  0  0  0
  142.0900  157.9600  134.5420 N   0  0  0  0  0  0  0  0  0  0  0  0
  143.0110  157.5950  133.5030 C   0  0  0  0  0  0  0  0  0  0  0  0
  142.5690  157.1610  132.4050 O   0  0  0  0  0  0  0  0  0  0  0  0
  144.4660  157.7350  133.7110 C   0  0  0  0  0  0  0  0  0  0  0  0
  145.0900  156.8550  134.3630 O   0  0  0  0  0  0  0  0  0  0  0  0
  145.2120  158.9350  133.2010 C   0  0  0  0  0  0  0  0  0  0  0  0
  144.6230  160.2200  133.7970 C   0  0  0  0  0  0  0  0  0  0  0  0
  145.7010  161.2670  134.1020 C   0  0  0  0  0  0  0  0  0  0  0  0
  145.1040  162.5930  134.4590 C   0  0  0  0  0  0  0  0  0  0  0  0
  144.1990  163.0930  133.7410 O   0  0  0  0  0  0  0  0  0  0  0  0
  145.5700  163.2920  135.5650 O   0  0  0  0  0  0  0  0  0  0  0  0
  141.4800  158.9690  131.7690 H   0  0  0  0  0  0  0  0  0  0  0  0
  139.8855  159.8646  136.1474 H   0  0  0  0  0  0  0  0  0  0  0  0
  139.8115  157.9907  138.3160 H   0  0  0  0  0  0  0  0  0  0  0  0
  140.7924  155.8113  139.1128 H   0  0  0  0  0  0  0  0  0  0  0  0
  143.7343  154.3316  137.8992 H   0  0  0  0  0  0  0  0  0  0  0  0
  142.2157  154.0025  138.8147 H   0  0  0  0  0  0  0  0  0  0  0  0
  141.7315  153.5492  135.9994 H   0  0  0  0  0  0  0  0  0  0  0  0
  143.2162  152.6523  136.4993 H   0  0  0  0  0  0  0  0  0  0  0  0
  143.1899  155.5626  135.4788 H   0  0  0  0  0  0  0  0  0  0  0  0
  146.2706  158.8535  133.4885 H   0  0  0  0  0  0  0  0  0  0  0  0
  145.1214  158.9740  132.1054 H   0  0  0  0  0  0  0  0  0  0  0  0
  143.9077  160.6475  133.0790 H   0  0  0  0  0  0  0  0  0  0  0  0
  144.1314  159.9568  134.7452 H   0  0  0  0  0  0  0  0  0  0  0  0
  146.3123  160.9132  134.9453 H   0  0  0  0  0  0  0  0  0  0  0  0
  146.3133  161.4003  133.1979 H   0  0  0  0  0  0  0  0  0  0  0  0
  1  2  1  0
  2  3  2  0
  2  4  1  0
  4  5  2  0
  5  6  1  0
  6  7  2  0
  7  8  1  0
  8  9  2  0
  9 10  1  0
 10 11  1  0
 11 12  1  0
 12 13  2  0
 12 14  1  0
 12 15  1  0
  9 16  1  0
 16 17  2  0
 17 18  1  0
 18 19  1  0
 19 20  2  0
 19 21  1  0
 21 22  2  0
 21 23  1  0
 23 24  1  0
 24 25  1  0
 25 26  1  0
 26 27  2  0
 26 28  1  0
 18  4  1  0
 17  6  1  0
  1 29  1  0
  5 30  1  0
  7 31  1  0
  8 32  1  0
 10 33  1  0
 10 34  1  0
 11 35  1  0
 11 36  1  0
 16 37  1  0
 23 38  1  0
 23 39  1  0
 24 40  1  0
 24 41  1  0
 25 42  1  0
 25 43  1  0
M  CHG  4   1  -1  14  -1  15  -1  28  -1
M  END
>  <UniqueID>  (14) 
14

>  <SMILES>  (14) 
[NH-]C(=O)c1cc2ccc(CCP(=O)([O-])[O-])cc2n1C(=O)C(=O)CCCC(=O)[O-]

>  <Energy>  (14) 
68.89588013589821

>  <Genealogy>  (14) 
[NH-]C(=O)c1cc2ccc(CCP(=O)([O-])[O-])cc2n1C(=O)C(=O)CCCC(=O)[O-] (protonated)
[NH-]C(=O)c1cc2ccc(CCP(=O)([O-])[O-])cc2n1C(=O)C(=O)CCCC(=O)[O-] (3D coordinates assigned)
[NH-]C(=O)c1cc2ccc(CCP(=O)([O-])[O-])cc2n1C(=O)C(=O)CCCC(=O)[O-] (optimized conformer: 68.89588013589821 kcal/mol)

>  <smiles>  (14) 
NC(=O)c1cc2ccc(CCP(=O)(O)O)cc2n1C(=O)C(=O)CCCC(=O)O

>  <score_type>  (14) 
oracle

>  <origin>  (14) 
adg

>  <m_score__min__energy>  (14) 
-7.6900000000000004

>  <m_primary>  (14) 
energy

$$$$
14:0
     RDKit          3D

 34 35  0  0  0  0  0  0  0  0999 V2000
  150.3490  150.7370  131.8440 C   0  0  0  0  0  0  0  0  0  0  0  0
  149.6070  151.8460  131.8550 C   0  0  0  0  0  0  0  0  0  0  0  0
  149.0430  152.3980  133.1320 C   0  0  0  0  0  0  0  0  0  0  0  0
  148.2580  153.5610  132.8760 O   0  0  0  0  0  0  0  0  0  0  0  0
  148.7970  154.8510  132.8000 C   0  0  0  0  0  0  0  0  0  0  0  0
  149.9360  155.0360  132.2880 O   0  0  0  0  0  0  0  0  0  0  0  0
  148.0410  155.9680  133.2870 N   0  0  0  0  0  0  0  0  0  0  0  0
  147.0360  155.9620  134.2080 C   0  0  0  0  0  0  0  0  0  0  0  0
  146.3990  154.7620  134.7900 C   0  0  0  0  0  0  0  0  0  0  0  0
  147.1790  153.7450  135.4130 N   0  0  0  0  0  0  0  0  0  0  0  0
  145.1510  154.6090  134.6950 O   0  0  0  0  0  0  0  0  0  0  0  0
  146.6110  157.2610  134.4780 C   0  0  0  0  0  0  0  0  0  0  0  0
  147.3860  158.0700  133.6790 C   0  0  0  0  0  0  0  0  0  0  0  0
  147.3950  159.4560  133.5490 C   0  0  0  0  0  0  0  0  0  0  0  0
  148.3240  160.0280  132.6650 C   0  0  0  0  0  0  0  0  0  0  0  0
  149.2290  159.2180  131.9350 C   0  0  0  0  0  0  0  0  0  0  0  0
  150.1730  159.8460  131.0480 N   0  0  0  0  0  0  0  0  0  0  0  0
  149.9120  160.0870  129.6320 C   0  0  0  0  0  0  0  0  0  0  0  0
  149.1890  157.8110  132.0970 C   0  0  0  0  0  0  0  0  0  0  0  0
  148.2400  157.2670  132.9700 C   0  0  0  0  0  0  0  0  0  0  0  0
  150.7505  150.3533  130.8945 H   0  0  0  0  0  0  0  0  0  0  0  0
  150.5592  150.2065  132.7844 H   0  0  0  0  0  0  0  0  0  0  0  0
  149.4042  152.3671  130.9077 H   0  0  0  0  0  0  0  0  0  0  0  0
  148.4111  151.6335  133.6077 H   0  0  0  0  0  0  0  0  0  0  0  0
  149.8756  152.6728  133.7963 H   0  0  0  0  0  0  0  0  0  0  0  0
  147.5800  152.9570  134.8570 H   0  0  0  0  0  0  0  0  0  0  0  0
  145.8239  157.5733  135.1801 H   0  0  0  0  0  0  0  0  0  0  0  0
  146.6959  160.0837  134.1211 H   0  0  0  0  0  0  0  0  0  0  0  0
  148.3496  161.1203  132.5374 H   0  0  0  0  0  0  0  0  0  0  0  0
  151.0960  160.1540  131.4300 H   0  0  0  0  0  0  0  0  0  0  0  0
  149.1074  160.8300  129.5287 H   0  0  0  0  0  0  0  0  0  0  0  0
  150.8253  160.4662  129.1502 H   0  0  0  0  0  0  0  0  0  0  0  0
  149.6066  159.1465  129.1502 H   0  0  0  0  0  0  0  0  0  0  0  0
  149.8876  157.1613  131.5493 H   0  0  0  0  0  0  0  0  0  0  0  0
  1  2  2  0
  2  3  1  0
  3  4  1  0
  4  5  1  0
  5  6  2  0
  5  7  1  0
  7  8  1  0
  8  9  1  0
  9 10  1  0
  9 11  2  0
  8 12  2  0
 12 13  1  0
 13 14  2  0
 14 15  1  0
 15 16  2  0
 16 17  1  0
 17 18  1  0
 16 19  1  0
 19 20  2  0
 20  7  1  0
 20 13  1  0
  1 21  1  0
  1 22  1  0
  2 23  1  0
  3 24  1  0
  3 25  1  0
 10 26  1  0
 12 27  1  0
 14 28  1  0
 15 29  1  0
 17 30  1  0
 18 31  1  0
 18 32  1  0
 18 33  1  0
 19 34  1  0
M  CHG  1  10  -1
M  END
>  <UniqueID>  (15) 
15

>  <SMILES>  (15) 
C=CCOC(=O)n1c(C([NH-])=O)cc2ccc(NC)cc21

>  <Energy>  (15) 
67.48201913719232

>  <Genealogy>  (15) 
C=CCOC(=O)n1c(C([NH-])=O)cc2ccc(NC)cc21 (protonated)
C=CCOC(=O)n1c(C([NH-])=O)cc2ccc(NC)cc21 (3D coordinates assigned)
C=CCOC(=O)n1c(C([NH-])=O)cc2ccc(NC)cc21 (optimized conformer: 67.48201913719232 kcal/mol)

>  <smiles>  (15) 
C=CCOC(=O)n1c(C(N)=O)cc2ccc(NC)cc21

>  <score_type>  (15) 
oracle

>  <origin>  (15) 
adg

>  <m_score__min__energy>  (15) 
-6.2699999999999996

>  <m_primary>  (15) 
energy

$$$$
15:0
     RDKit          3D

 41 42  0  0  0  0  0  0  0  0999 V2000
  150.1870  159.5130  131.1470 N   0  0  0  0  0  0  0  0  0  0  0  0
  149.4400  158.8430  131.7250 C   0  0  0  0  0  0  0  0  0  0  0  0
  148.4950  157.9960  132.4580 C   0  0  0  0  0  0  0  0  0  0  0  0
  147.3340  158.8200  132.9400 C   0  0  0  0  0  0  0  0  0  0  0  0
  147.5300  160.1710  133.3230 C   0  0  0  0  0  0  0  0  0  0  0  0
  146.4450  160.9610  133.7380 C   0  0  0  0  0  0  0  0  0  0  0  0
  145.1820  160.3770  133.7570 C   0  0  0  0  0  0  0  0  0  0  0  0
  143.9600  160.9190  134.0890 C   0  0  0  0  0  0  0  0  0  0  0  0
  143.0390  159.8890  133.9120 C   0  0  0  0  0  0  0  0  0  0  0  0
  141.6050  160.0110  134.2470 C   0  0  0  0  0  0  0  0  0  0  0  0
  140.5990  159.6960  133.2870 N   0  0  0  0  0  0  0  0  0  0  0  0
  141.2620  160.3510  135.4100 O   0  0  0  0  0  0  0  0  0  0  0  0
  143.6650  158.7590  133.4780 N   0  0  0  0  0  0  0  0  0  0  0  0
  143.0680  157.5090  133.1030 C   0  0  0  0  0  0  0  0  0  0  0  0
  142.1510  157.4860  132.2370 O   0  0  0  0  0  0  0  0  0  0  0  0
  143.5190  156.3210  133.6900 O   0  0  0  0  0  0  0  0  0  0  0  0
  143.4070  156.0470  135.0850 C   0  0  0  0  0  0  0  0  0  0  0  0
  142.6230  154.7930  135.3160 C   0  0  0  0  0  0  0  0  0  0  0  0
  143.1510  153.8370  135.9500 O   0  0  0  0  0  0  0  0  0  0  0  0
  141.3030  154.7060  134.8580 O   0  0  0  0  0  0  0  0  0  0  0  0
  140.9590  154.3980  133.5100 C   0  0  0  0  0  0  0  0  0  0  0  0
  139.7420  155.2060  133.0670 C   0  0  0  0  0  0  0  0  0  0  0  0
  140.0040  156.5950  133.2420 O   0  0  0  0  0  0  0  0  0  0  0  0
  139.0980  157.5640  132.8560 N   0  0  0  0  0  0  0  0  0  0  0  0
  138.9420  157.8560  131.6520 O   0  0  0  0  0  0  0  0  0  0  0  0
  138.3520  158.2100  133.8120 O   0  0  0  0  0  0  0  0  0  0  0  0
  144.9760  159.0720  133.3940 C   0  0  0  0  0  0  0  0  0  0  0  0
  146.0350  158.2650  132.9620 C   0  0  0  0  0  0  0  0  0  0  0  0
  148.1265  157.2011  131.7929 H   0  0  0  0  0  0  0  0  0  0  0  0
  149.0060  157.5502  133.3241 H   0  0  0  0  0  0  0  0  0  0  0  0
  148.5406  160.6044  133.2949 H   0  0  0  0  0  0  0  0  0  0  0  0
  146.5894  162.0092  134.0388 H   0  0  0  0  0  0  0  0  0  0  0  0
  143.7550  161.9468  134.4230 H   0  0  0  0  0  0  0  0  0  0  0  0
  140.4470  158.7120  132.9690 H   0  0  0  0  0  0  0  0  0  0  0  0
  144.4138  155.9273  135.5116 H   0  0  0  0  0  0  0  0  0  0  0  0
  142.8848  156.8852  135.5695 H   0  0  0  0  0  0  0  0  0  0  0  0
  141.8100  154.6386  132.8559 H   0  0  0  0  0  0  0  0  0  0  0  0
  140.7170  153.3271  133.4420 H   0  0  0  0  0  0  0  0  0  0  0  0
  139.5338  155.0031  132.0061 H   0  0  0  0  0  0  0  0  0  0  0  0
  138.8707  154.9183  133.6737 H   0  0  0  0  0  0  0  0  0  0  0  0
  145.8603  157.2254  132.6477 H   0  0  0  0  0  0  0  0  0  0  0  0
  1  2  3  0
  2  3  1  0
  3  4  1  0
  4  5  2  0
  5  6  1  0
  6  7  2  0
  7  8  1  0
  8  9  2  0
  9 10  1  0
 10 11  1  0
 10 12  2  0
  9 13  1  0
 13 14  1  0
 14 15  2  0
 14 16  1  0
 16 17  1  0
 17 18  1  0
 18 19  2  0
 18 20  1  0
 20 21  1  0
 21 22  1  0
 22 23  1  0
 23 24  1  0
 24 25  2  0
 24 26  1  0
 13 27  1  0
 27 28  2  0
 28  4  1  0
 27  7  1  0
  3 29  1  0
  3 30  1  0
  5 31  1  0
  6 32  1  0
  8 33  1  0
 11 34  1  0
 17 35  1  0
 17 36  1  0
 21 37  1  0
 21 38  1  0
 22 39  1  0
 22 40  1  0
 28 41  1  0
M  CHG  3  11  -1  24   1  26  -1
M  END
>  <UniqueID>  (16) 
16

>  <SMILES>  (16) 
N#CCc1ccc2cc(C([NH-])=O)n(C(=O)OCC(=O)OCCO[N+](=O)[O-])c2c1

>  <Energy>  (16) 
70.28973040741826

>  <Genealogy>  (16) 
N#CCc1ccc2cc(C([NH-])=O)n(C(=O)OCC(=O)OCCO[N+](=O)[O-])c2c1 (protonated)
N#CCc1ccc2cc(C([NH-])=O)n(C(=O)OCC(=O)OCCO[N+](=O)[O-])c2c1 (3D coordinates assigned)
N#CCc1ccc2cc(C([NH-])=O)n(C(=O)OCC(=O)OCCO[N+](=O)[O-])c2c1 (optimized conformer: 70.28973040741826 kcal/mol)

>  <smiles>  (16) 
N#CCc1ccc2cc(C(N)=O)n(C(=O)OCC(=O)OCCO[N+](=O)[O-])c2c1

>  <score_type>  (16) 
oracle

>  <origin>  (16) 
adg

>  <m_score__min__energy>  (16) 
-7.0499999999999998

>  <m_primary>  (16) 
energy

$$$$
16:0
     RDKit          3D

 34 35  0  0  0  0  0  0  0  0999 V2000
  138.7430  159.4840  130.4120 C   0  0  0  0  0  0  0  0  0  0  0  0
  139.2240  159.0350  131.4220 C   0  0  0  0  0  0  0  0  0  0  0  0
  139.7970  158.5000  132.6280 C   0  0  0  0  0  0  0  0  0  0  0  0
  140.0750  159.3560  133.7190 C   0  0  0  0  0  0  0  0  0  0  0  0
  140.6330  158.8440  134.9020 C   0  0  0  0  0  0  0  0  0  0  0  0
  140.8990  157.4780  134.9600 C   0  0  0  0  0  0  0  0  0  0  0  0
  141.4280  156.7190  135.9790 C   0  0  0  0  0  0  0  0  0  0  0  0
  141.4700  155.4170  135.4850 C   0  0  0  0  0  0  0  0  0  0  0  0
  142.0680  154.2850  136.2210 C   0  0  0  0  0  0  0  0  0  0  0  0
  143.0300  153.4490  135.5820 N   0  0  0  0  0  0  0  0  0  0  0  0
  141.7110  154.0270  137.4000 O   0  0  0  0  0  0  0  0  0  0  0  0
  140.9740  155.3690  134.2170 N   0  0  0  0  0  0  0  0  0  0  0  0
  140.7550  154.2120  133.3910 C   0  0  0  0  0  0  0  0  0  0  0  0
  139.6340  154.0610  132.8300 O   0  0  0  0  0  0  0  0  0  0  0  0
  141.7620  153.1730  133.3100 N   0  0  2  0  0  0  0  0  0  0  0  0
  142.9670  153.6280  132.5920 C   0  0  0  0  0  0  0  0  0  0  0  0
  141.2010  151.9250  132.7430 C   0  0  0  0  0  0  0  0  0  0  0  0
  140.9990  150.8330  133.7600 C   0  0  0  0  0  0  0  0  0  0  0  0
  140.7230  149.6620  133.3870 O   0  0  0  0  0  0  0  0  0  0  0  0
  141.1110  151.1100  135.1160 O   0  0  0  0  0  0  0  0  0  0  0  0
  140.6390  156.6400  133.9060 C   0  0  0  0  0  0  0  0  0  0  0  0
  140.0800  157.1220  132.7180 C   0  0  0  0  0  0  0  0  0  0  0  0
  138.3041  159.8937  129.4903 H   0  0  0  0  0  0  0  0  0  0  0  0
  139.8526  160.4304  133.6405 H   0  0  0  0  0  0  0  0  0  0  0  0
  140.8531  159.5014  135.7561 H   0  0  0  0  0  0  0  0  0  0  0  0
  141.7492  157.0664  136.9720 H   0  0  0  0  0  0  0  0  0  0  0  0
  142.7830  152.4810  135.2800 H   0  0  0  0  0  0  0  0  0  0  0  0
  142.0650  152.9420  134.2850 H   0  0  0  0  0  0  0  0  0  0  0  0
  143.7390  153.9195  133.3193 H   0  0  0  0  0  0  0  0  0  0  0  0
  143.3477  152.8117  131.9605 H   0  0  0  0  0  0  0  0  0  0  0  0
  142.7131  154.4922  131.9605 H   0  0  0  0  0  0  0  0  0  0  0  0
  140.2278  152.1582  132.2865 H   0  0  0  0  0  0  0  0  0  0  0  0
  141.9304  151.5496  132.0102 H   0  0  0  0  0  0  0  0  0  0  0  0
  139.8672  156.4449  131.8776 H   0  0  0  0  0  0  0  0  0  0  0  0
  1  2  3  0
  2  3  1  0
  3  4  2  0
  4  5  1  0
  5  6  2  0
  6  7  1  0
  7  8  2  0
  8  9  1  0
  9 10  1  0
  9 11  2  0
  8 12  1  0
 12 13  1  0
 13 14  2  0
 13 15  1  0
 15 16  1  0
 15 17  1  0
 17 18  1  0
 18 19  2  0
 18 20  1  0
 12 21  1  0
 21 22  2  0
 22  3  1  0
 21  6  1  0
  1 23  1  0
  4 24  1  0
  5 25  1  0
  7 26  1  0
 10 27  1  0
 15 28  1  1
 16 29  1  0
 16 30  1  0
 16 31  1  0
 17 32  1  0
 17 33  1  0
 22 34  1  0
M  CHG  3  10  -1  15   1  20  -1
M  END
>  <UniqueID>  (17) 
17

>  <SMILES>  (17) 
C#Cc1ccc2cc(C([NH-])=O)n(C(=O)[N@H+](C)CC(=O)[O-])c2c1

>  <Energy>  (17) 
75.91786734061009

>  <Genealogy>  (17) 
C#Cc1ccc2cc(C([NH-])=O)n(C(=O)[NH+](C)CC(=O)[O-])c2c1 (protonated)
C#Cc1ccc2cc(C([NH-])=O)n(C(=O)[N@H+](C)CC(=O)[O-])c2c1 (chirality)
C#Cc1ccc2cc(C([NH-])=O)n(C(=O)[N@H+](C)CC(=O)[O-])c2c1 (3D coordinates assigned)
C#Cc1ccc2cc(C([NH-])=O)n(C(=O)[N@H+](C)CC(=O)[O-])c2c1 (optimized conformer: 75.91786734061009 kcal/mol)

>  <smiles>  (17) 
C#Cc1ccc2cc(C(N)=O)n(C(=O)N(C)CC(=O)O)c2c1

>  <score_type>  (17) 
oracle

>  <origin>  (17) 
adg

>  <m_score__min__energy>  (17) 
-6.0099999999999998

>  <m_primary>  (17) 
energy

$$$$
17:0
     RDKit          3D

 33 34  0  0  0  0  0  0  0  0999 V2000
  148.0330  153.6570  133.6200 C   0  0  0  0  0  0  0  0  0  0  0  0
  147.2790  154.6260  134.4180 N   0  0  0  0  0  0  0  0  0  0  0  0
  146.4480  154.1560  135.4950 C   0  0  0  0  0  0  0  0  0  0  0  0
  145.2300  154.4740  135.5520 O   0  0  0  0  0  0  0  0  0  0  0  0
  146.9860  153.3660  136.5060 O   0  0  0  0  0  0  0  0  0  0  0  0
  147.5710  156.0260  134.2660 C   0  0  0  0  0  0  0  0  0  0  0  0
  148.1240  156.6490  135.2130 O   0  0  0  0  0  0  0  0  0  0  0  0
  147.2700  156.7380  133.0080 C   0  0  0  0  0  0  0  0  0  0  0  0
  147.2910  156.1190  131.9110 O   0  0  0  0  0  0  0  0  0  0  0  0
  146.9810  158.1450  133.0170 N   0  0  0  0  0  0  0  0  0  0  0  0
  147.8310  159.1720  132.7400 C   0  0  0  0  0  0  0  0  0  0  0  0
  149.2220  159.0400  132.2590 C   0  0  0  0  0  0  0  0  0  0  0  0
  149.7750  157.7650  131.9440 N   0  0  0  0  0  0  0  0  0  0  0  0
  149.9290  160.0730  132.1020 O   0  0  0  0  0  0  0  0  0  0  0  0
  147.1920  160.3960  132.9330 C   0  0  0  0  0  0  0  0  0  0  0  0
  145.9170  160.0820  133.3470 C   0  0  0  0  0  0  0  0  0  0  0  0
  144.8550  160.9120  133.6900 C   0  0  0  0  0  0  0  0  0  0  0  0
  143.6550  160.3090  134.1070 C   0  0  0  0  0  0  0  0  0  0  0  0
  143.5470  158.8970  134.2010 C   0  0  0  0  0  0  0  0  0  0  0  0
  142.2430  158.2610  134.6130 C   0  0  0  0  0  0  0  0  0  0  0  0
  141.4000  158.1250  133.5230 F   0  0  0  0  0  0  0  0  0  0  0  0
  142.4600  157.0050  135.1510 F   0  0  0  0  0  0  0  0  0  0  0  0
  141.6290  159.0590  135.5600 F   0  0  0  0  0  0  0  0  0  0  0  0
  144.6440  158.0890  133.8230 C   0  0  0  0  0  0  0  0  0  0  0  0
  145.8180  158.7170  133.3940 C   0  0  0  0  0  0  0  0  0  0  0  0
  148.5689  152.9683  134.2897 H   0  0  0  0  0  0  0  0  0  0  0  0
  147.3394  153.0858  132.9854 H   0  0  0  0  0  0  0  0  0  0  0  0
  148.7571  154.1889  132.9854 H   0  0  0  0  0  0  0  0  0  0  0  0
  149.2020  157.0310  131.4740 H   0  0  0  0  0  0  0  0  0  0  0  0
  147.6166  161.4000  132.7857 H   0  0  0  0  0  0  0  0  0  0  0  0
  144.9508  162.0065  133.6367 H   0  0  0  0  0  0  0  0  0  0  0  0
  142.7903  160.9388  134.3632 H   0  0  0  0  0  0  0  0  0  0  0  0
  144.5758  156.9919  133.8653 H   0  0  0  0  0  0  0  0  0  0  0  0
  1  2  1  0
  2  3  1  0
  3  4  2  0
  3  5  1  0
  2  6  1  0
  6  7  2  0
  6  8  1  0
  8  9  2  0
  8 10  1  0
 10 11  1  0
 11 12  1  0
 12 13  1  0
 12 14  2  0
 11 15  2  0
 15 16  1  0
 16 17  2  0
 17 18  1  0
 18 19  2  0
 19 20  1  0
 20 21  1  0
 20 22  1  0
 20 23  1  0
 19 24  1  0
 24 25  2  0
 25 10  1  0
 25 16  1  0
  1 26  1  0
  1 27  1  0
  1 28  1  0
 13 29  1  0
 15 30  1  0
 17 31  1  0
 18 32  1  0
 24 33  1  0
M  CHG  2   5  -1  13  -1
M  END
>  <UniqueID>  (18) 
18

>  <SMILES>  (18) 
CN(C(=O)[O-])C(=O)C(=O)n1c(C([NH-])=O)cc2ccc(C(F)(F)F)cc21

>  <Energy>  (18) 
77.81040279308576

>  <Genealogy>  (18) 
CN(C(=O)[O-])C(=O)C(=O)n1c(C([NH-])=O)cc2ccc(C(F)(F)F)cc21 (protonated)
CN(C(=O)[O-])C(=O)C(=O)n1c(C([NH-])=O)cc2ccc(C(F)(F)F)cc21 (3D coordinates assigned)
CN(C(=O)[O-])C(=O)C(=O)n1c(C([NH-])=O)cc2ccc(C(F)(F)F)cc21 (optimized conformer: 77.81040279308576 kcal/mol)

>  <smiles>  (18) 
CN(C(=O)O)C(=O)C(=O)n1c(C(N)=O)cc2ccc(C(F)(F)F)cc21

>  <score_type>  (18) 
oracle

>  <origin>  (18) 
adg

>  <m_score__min__energy>  (18) 
-6.1500000000000004

>  <m_primary>  (18) 
energy

$$$$
18:0
     RDKit          3D

 33 34  0  0  0  0  0  0  0  0999 V2000
  149.1090  153.7620  132.5350 C   0  0  0  0  0  0  0  0  0  0  0  0
  148.7470  154.9080  132.6270 C   0  0  0  0  0  0  0  0  0  0  0  0
  148.3140  156.2760  132.7390 C   0  0  0  0  0  0  0  0  0  0  0  0
  149.2300  157.3270  132.4960 C   0  0  0  0  0  0  0  0  0  0  0  0
  148.8170  158.6660  132.5890 C   0  0  0  0  0  0  0  0  0  0  0  0
  147.4900  158.9170  132.9310 C   0  0  0  0  0  0  0  0  0  0  0  0
  146.8210  160.1130  133.0610 C   0  0  0  0  0  0  0  0  0  0  0  0
  145.5150  159.7690  133.4040 C   0  0  0  0  0  0  0  0  0  0  0  0
  144.4700  160.7620  133.7280 C   0  0  0  0  0  0  0  0  0  0  0  0
  143.1110  160.5410  133.3610 N   0  0  0  0  0  0  0  0  0  0  0  0
  144.7730  161.7960  134.3820 O   0  0  0  0  0  0  0  0  0  0  0  0
  145.3790  158.4150  133.4740 N   0  0  0  0  0  0  0  0  0  0  0  0
  144.1730  157.6670  133.6950 C   0  0  0  0  0  0  0  0  0  0  0  0
  144.0820  156.9090  134.6980 O   0  0  0  0  0  0  0  0  0  0  0  0
  143.1220  157.7710  132.7740 O   0  0  0  0  0  0  0  0  0  0  0  0
  141.8140  157.3150  132.9910 C   0  0  0  0  0  0  0  0  0  0  0  0
  141.5800  156.1040  133.2570 O   0  0  0  0  0  0  0  0  0  0  0  0
  140.6770  158.2930  132.9340 C   0  0  1  0  0  0  0  0  0  0  0  0
  140.4720  158.9420  134.3000 C   0  0  0  0  0  0  0  0  0  0  0  0
  140.9540  159.2890  131.9860 O   0  0  0  0  0  0  0  0  0  0  0  0
  146.5970  157.9070  133.1840 C   0  0  0  0  0  0  0  0  0  0  0  0
  146.9780  156.5630  133.0810 C   0  0  0  0  0  0  0  0  0  0  0  0
  149.4394  152.7161  132.4510 H   0  0  0  0  0  0  0  0  0  0  0  0
  150.2722  157.0936  132.2326 H   0  0  0  0  0  0  0  0  0  0  0  0
  149.5193  159.4908  132.3978 H   0  0  0  0  0  0  0  0  0  0  0  0
  147.2302  161.1248  132.9234 H   0  0  0  0  0  0  0  0  0  0  0  0
  142.8640  159.8990  132.5760 H   0  0  0  0  0  0  0  0  0  0  0  0
  139.7621  157.7538  132.6473 H   0  0  0  0  0  0  0  0  0  0  0  0
  140.7023  158.2128  135.0907 H   0  0  0  0  0  0  0  0  0  0  0  0
  141.1394  159.8110  134.3969 H   0  0  0  0  0  0  0  0  0  0  0  0
  139.4265  159.2700  134.3969 H   0  0  0  0  0  0  0  0  0  0  0  0
  141.9420  159.3820  131.9490 H   0  0  0  0  0  0  0  0  0  0  0  0
  146.2544  155.7546  133.2620 H   0  0  0  0  0  0  0  0  0  0  0  0
  1  2  3  0
  2  3  1  0
  3  4  2  0
  4  5  1  0
  5  6  2  0
  6  7  1  0
  7  8  2  0
  8  9  1  0
  9 10  1  0
  9 11  2  0
  8 12  1  0
 12 13  1  0
 13 14  2  0
 13 15  1  0
 15 16  1  0
 16 17  2  0
 16 18  1  0
 18 19  1  0
 18 20  1  0
 12 21  1  0
 21 22  2  0
 22  3  1  0
 21  6  1  0
  1 23  1  0
  4 24  1  0
  5 25  1  0
  7 26  1  0
 10 27  1  0
 18 28  1  6
 19 29  1  0
 19 30  1  0
 19 31  1  0
 20 32  1  0
 22 33  1  0
M  CHG  1  10  -1
M  END
>  <UniqueID>  (19) 
19

>  <SMILES>  (19) 
C#Cc1ccc2cc(C([NH-])=O)n(C(=O)OC(=O)[C@@H](C)O)c2c1

>  <Energy>  (19) 
67.88345231628598

>  <Genealogy>  (19) 
C#Cc1ccc2cc(C([NH-])=O)n(C(=O)OC(=O)C(C)O)c2c1 (protonated)
C#Cc1ccc2cc(C([NH-])=O)n(C(=O)OC(=O)[C@@H](C)O)c2c1 (chirality)
C#Cc1ccc2cc(C([NH-])=O)n(C(=O)OC(=O)[C@@H](C)O)c2c1 (3D coordinates assigned)
C#Cc1ccc2cc(C([NH-])=O)n(C(=O)OC(=O)[C@@H](C)O)c2c1 (optimized conformer: 67.88345231628598 kcal/mol)

>  <smiles>  (19) 
C#Cc1ccc2cc(C(N)=O)n(C(=O)OC(=O)C(C)O)c2c1

>  <score_type>  (19) 
oracle

>  <origin>  (19) 
adg

>  <m_score__min__energy>  (19) 
-6.9299999999999997

>  <m_primary>  (19) 
energy

$$$$
19:0
     RDKit          3D

 39 41  0  0  0  0  0  0  0  0999 V2000
  142.5070  159.0140  132.2510 H   0  0  0  0  0  0  0  0  0  0  0  0
  142.8020  159.6970  132.9840 N   0  0  0  0  0  0  0  0  0  0  0  0
  141.9610  159.9800  134.1000 C   0  0  0  0  0  0  0  0  0  0  0  0
  141.3630  161.0860  134.1580 O   0  0  0  0  0  0  0  0  0  0  0  0
  141.7840  158.9680  135.1640 C   0  0  0  0  0  0  0  0  0  0  0  0
  141.7240  159.2730  136.5230 C   0  0  0  0  0  0  0  0  0  0  0  0
  141.7627  160.2705  136.9850 H   0  0  0  0  0  0  0  0  0  0  0  0
  141.6060  158.0600  137.1640 C   0  0  0  0  0  0  0  0  0  0  0  0
  141.4760  157.7710  138.5180 C   0  0  0  0  0  0  0  0  0  0  0  0
  141.4863  158.5719  139.2720 H   0  0  0  0  0  0  0  0  0  0  0  0
  141.3310  156.4240  138.8940 C   0  0  0  0  0  0  0  0  0  0  0  0
  141.2194  156.1653  139.9573 H   0  0  0  0  0  0  0  0  0  0  0  0
  141.3270  155.3940  137.9170 C   0  0  0  0  0  0  0  0  0  0  0  0
  141.1090  153.9610  138.3280 C   0  0  0  0  0  0  0  0  0  0  0  0
  141.9430  153.6210  139.3790 F   0  0  0  0  0  0  0  0  0  0  0  0
  141.3730  153.1050  137.2720 F   0  0  0  0  0  0  0  0  0  0  0  0
  139.7950  153.7950  138.7240 F   0  0  0  0  0  0  0  0  0  0  0  0
  141.4330  155.7330  136.5480 C   0  0  0  0  0  0  0  0  0  0  0  0
  141.3890  154.9560  135.7706 H   0  0  0  0  0  0  0  0  0  0  0  0
  141.5950  157.0790  136.2060 C   0  0  0  0  0  0  0  0  0  0  0  0
  141.7060  157.6220  134.9750 N   0  0  0  0  0  0  0  0  0  0  0  0
  141.6840  156.9160  133.7250 C   0  0  0  0  0  0  0  0  0  0  0  0
  142.6900  156.9800  132.9700 O   0  0  0  0  0  0  0  0  0  0  0  0
  140.4800  156.1450  133.3420 C   0  0  0  0  0  0  0  0  0  0  0  0
  140.6304  155.0892  133.0725 H   0  0  0  0  0  0  0  0  0  0  0  0
  139.2220  156.6110  133.2920 C   0  0  0  0  0  0  0  0  0  0  0  0
  138.4298  155.8950  133.0279 H   0  0  0  0  0  0  0  0  0  0  0  0
  138.8040  158.0310  133.5670 C   0  0  0  0  0  0  0  0  0  0  0  0
  137.8020  158.0284  134.0208 H   0  0  0  0  0  0  0  0  0  0  0  0
  139.5383  158.4838  134.2495 H   0  0  0  0  0  0  0  0  0  0  0  0
  138.7680  158.8210  132.3360 N   0  0  0  0  0  0  0  0  0  0  0  0
  139.2430  160.0700  132.1540 C   0  0  0  0  0  0  0  0  0  0  0  0
  139.6748  160.7157  132.9329 H   0  0  0  0  0  0  0  0  0  0  0  0
  139.0940  160.3980  130.8230 C   0  0  0  0  0  0  0  0  0  0  0  0
  139.3760  161.3561  130.3620 H   0  0  0  0  0  0  0  0  0  0  0  0
  138.5450  159.3480  130.1820 N   0  0  0  0  0  0  0  0  0  0  0  0
  138.3190  159.2800  129.1660 H   0  0  0  0  0  0  0  0  0  0  0  0
  138.3680  158.3990  131.1210 C   0  0  0  0  0  0  0  0  0  0  0  0
  137.9485  157.4021  130.9205 H   0  0  0  0  0  0  0  0  0  0  0  0
  1  2  1  0
  2  3  1  0
  3  4  2  0
  3  5  1  0
  5  6  2  0
  6  7  1  0
  6  8  1  0
  8  9  2  0
  9 10  1  0
  9 11  1  0
 11 12  1  0
 11 13  2  0
 13 14  1  0
 14 15  1  0
 14 16  1  0
 14 17  1  0
 13 18  1  0
 18 19  1  0
 18 20  2  0
 20 21  1  0
 21 22  1  0
 22 23  2  0
 22 24  1  0
 24 25  1  0
 24 26  2  0
 26 27  1  0
 26 28  1  0
 28 29  1  0
 28 30  1  0
 28 31  1  0
 31 32  1  0
 32 33  1  0
 32 34  2  0
 34 35  1  0
 34 36  1  0
 36 37  1  0
 36 38  2  0
 38 39  1  0
 21  5  1  0
 38 31  1  0
 20  8  1  0
M  CHG  2   2  -1  36   1
M  END
>  <UniqueID>  (20) 
20

>  <SMILES>  (20) 
[NH-]C(=O)c1cc2ccc(C(F)(F)F)cc2n1C(=O)/C=C\Cn1cc[nH+]c1

>  <Energy>  (20) 
111.22778941823135

>  <Genealogy>  (20) 
[NH-]C(=O)c1cc2ccc(C(F)(F)F)cc2n1C(=O)C=CCn1cc[nH+]c1 (protonated)
[NH-]C(=O)c1cc2ccc(C(F)(F)F)cc2n1C(=O)/C=C\Cn1cc[nH+]c1 (cis-trans isomerization)
[NH-]C(=O)c1cc2ccc(C(F)(F)F)cc2n1C(=O)/C=C\Cn1cc[nH+]c1 (3D coordinates assigned)
[NH-]C(=O)c1cc2ccc(C(F)(F)F)cc2n1C(=O)/C=C\Cn1cc[nH+]c1 (optimized conformer: 111.22778941823135 kcal/mol)

>  <smiles>  (20) 
NC(=O)c1cc2ccc(C(F)(F)F)cc2n1C(=O)C=CCn1ccnc1

>  <score_type>  (20) 
oracle

>  <origin>  (20) 
adg

>  <m_score__min__energy>  (20) 
-6.6799999999999997

>  <m_primary>  (20) 
energy

$$$$
20:0
     RDKit          3D

 38 39  0  0  0  0  0  0  0  0999 V2000
  139.4050  157.2920  134.1540 C   0  0  0  0  0  0  0  0  0  0  0  0
  139.2460  156.0130  133.4700 N   0  0  0  0  0  0  0  0  0  0  0  0
  140.2660  154.9980  133.4300 C   0  0  0  0  0  0  0  0  0  0  0  0
  141.5770  155.3220  133.8580 C   0  0  0  0  0  0  0  0  0  0  0  0
  142.6040  154.3660  133.8240 C   0  0  0  0  0  0  0  0  0  0  0  0
  142.2920  153.0900  133.3660 C   0  0  0  0  0  0  0  0  0  0  0  0
  143.1010  151.9890  133.1990 C   0  0  0  0  0  0  0  0  0  0  0  0
  142.2670  150.9940  132.6980 C   0  0  0  0  0  0  0  0  0  0  0  0
  142.7150  149.6130  132.4330 C   0  0  0  0  0  0  0  0  0  0  0  0
  141.7960  148.5200  132.4560 N   0  0  0  0  0  0  0  0  0  0  0  0
  143.9380  149.3860  132.2380 O   0  0  0  0  0  0  0  0  0  0  0  0
  140.9960  151.4610  132.5480 N   0  0  0  0  0  0  0  0  0  0  0  0
  139.8870  150.7770  131.9450 C   0  0  0  0  0  0  0  0  0  0  0  0
  138.7040  151.1070  132.2380 O   0  0  0  0  0  0  0  0  0  0  0  0
  140.1240  149.7450  131.0320 O   0  0  0  0  0  0  0  0  0  0  0  0
  139.3260  149.5460  129.8690 C   0  0  0  0  0  0  0  0  0  0  0  0
  138.4680  148.2910  130.0260 C   0  0  0  0  0  0  0  0  0  0  0  0
  139.3180  147.0240  130.1120 C   0  0  0  0  0  0  0  0  0  0  0  0
  140.2520  147.1580  131.1470 O   0  0  0  0  0  0  0  0  0  0  0  0
  141.0270  152.7470  132.9660 C   0  0  0  0  0  0  0  0  0  0  0  0
  139.9880  153.6870  132.9690 C   0  0  0  0  0  0  0  0  0  0  0  0
  139.3850  157.1310  135.2420 H   0  0  0  0  0  0  0  0  0  0  0  0
  140.3662  157.7438  133.8679 H   0  0  0  0  0  0  0  0  0  0  0  0
  138.5837  157.9654  133.8679 H   0  0  0  0  0  0  0  0  0  0  0  0
  138.3380  155.8360  132.9820 H   0  0  0  0  0  0  0  0  0  0  0  0
  141.7931  156.3372  134.2221 H   0  0  0  0  0  0  0  0  0  0  0  0
  143.6241  154.6179  134.1495 H   0  0  0  0  0  0  0  0  0  0  0  0
  144.1768  151.9121  133.4153 H   0  0  0  0  0  0  0  0  0  0  0  0
  142.1250  147.5540  132.2340 H   0  0  0  0  0  0  0  0  0  0  0  0
  140.8080  148.6500  132.7660 H   0  0  0  0  0  0  0  0  0  0  0  0
  138.6713  150.4180  129.7240 H   0  0  0  0  0  0  0  0  0  0  0  0
  139.9860  149.4229  128.9976 H   0  0  0  0  0  0  0  0  0  0  0  0
  137.8712  148.3815  130.9456 H   0  0  0  0  0  0  0  0  0  0  0  0
  137.8222  148.2076  129.1394 H   0  0  0  0  0  0  0  0  0  0  0  0
  138.6684  146.1596  130.3139 H   0  0  0  0  0  0  0  0  0  0  0  0
  139.8459  146.8711  129.1591 H   0  0  0  0  0  0  0  0  0  0  0  0
  140.9720  147.7430  130.7940 H   0  0  0  0  0  0  0  0  0  0  0  0
  138.9806  153.4139  132.6218 H   0  0  0  0  0  0  0  0  0  0  0  0
  1  2  1  0
  2  3  1  0
  3  4  2  0
  4  5  1  0
  5  6  2  0
  6  7  1  0
  7  8  2  0
  8  9  1  0
  9 10  1  0
  9 11  2  0
  8 12  1  0
 12 13  1  0
 13 14  2  0
 13 15  1  0
 15 16  1  0
 16 17  1  0
 17 18  1  0
 18 19  1  0
 12 20  1  0
 20 21  2  0
 21  3  1  0
 20  6  1  0
  1 22  1  0
  1 23  1  0
  1 24  1  0
  2 25  1  0
  4 26  1  0
  5 27  1  0
  7 28  1  0
 10 29  1  0
 10 30  1  0
 16 31  1  0
 16 32  1  0
 17 33  1  0
 17 34  1  0
 18 35  1  0
 18 36  1  0
 19 37  1  0
 21 38  1  0
M  END
>  <UniqueID>  (21) 
21

>  <SMILES>  (21) 
CNc1ccc2cc(C(N)=O)n(C(=O)OCCCO)c2c1

>  <Energy>  (21) 
68.19009088308601

>  <Genealogy>  (21) 
CNc1ccc2cc(C(N)=O)n(C(=O)OCCCO)c2c1 (3D coordinates assigned)
CNc1ccc2cc(C(N)=O)n(C(=O)OCCCO)c2c1 (optimized conformer: 68.19009088308601 kcal/mol)

>  <smiles>  (21) 
CNc1ccc2cc(C(N)=O)n(C(=O)OCCCO)c2c1

>  <score_type>  (21) 
oracle

>  <origin>  (21) 
adg

>  <m_score__min__energy>  (21) 
-6.4500000000000002

>  <m_primary>  (21) 
energy

$$$$
21:0
     RDKit          3D

 47 48  0  0  0  0  0  0  0  0999 V2000
  143.7020  152.6600  133.5080 C   0  0  0  0  0  0  0  0  0  0  0  0
  145.0300  153.0930  132.8710 C   0  0  0  0  0  0  0  0  0  0  0  0
  144.7670  154.2830  131.9290 C   0  0  0  0  0  0  0  0  0  0  0  0
  145.6210  151.9010  132.0950 C   0  0  0  0  0  0  0  0  0  0  0  0
  145.9040  153.4810  133.9410 O   0  0  0  0  0  0  0  0  0  0  0  0
  146.1610  154.7910  134.3740 C   0  0  0  0  0  0  0  0  0  0  0  0
  145.5330  155.2860  135.3480 O   0  0  0  0  0  0  0  0  0  0  0  0
  147.1320  155.5840  133.6740 N   0  0  0  0  0  0  0  0  0  0  0  0
  148.3370  155.1870  133.1740 C   0  0  0  0  0  0  0  0  0  0  0  0
  148.8440  153.8000  133.1280 C   0  0  0  0  0  0  0  0  0  0  0  0
  149.5430  153.3380  131.9740 N   0  0  0  0  0  0  0  0  0  0  0  0
  148.6360  153.0050  134.0820 O   0  0  0  0  0  0  0  0  0  0  0  0
  149.0160  156.2720  132.6210 C   0  0  0  0  0  0  0  0  0  0  0  0
  148.1810  157.3510  132.7910 C   0  0  0  0  0  0  0  0  0  0  0  0
  148.3610  158.6860  132.4420 C   0  0  0  0  0  0  0  0  0  0  0  0
  147.3420  159.5960  132.7690 C   0  0  0  0  0  0  0  0  0  0  0  0
  146.1690  159.1580  133.4340 C   0  0  0  0  0  0  0  0  0  0  0  0
  145.1040  160.1520  133.8190 C   0  0  0  0  0  0  0  0  0  0  0  0
  143.7390  159.6790  133.3900 C   0  0  0  0  0  0  0  0  0  0  0  0
  143.6330  158.5740  132.7940 O   0  0  0  0  0  0  0  0  0  0  0  0
  142.5610  160.4820  133.5510 N   0  0  0  0  0  0  0  0  0  0  0  0
  141.3520  160.1080  134.2780 C   0  0  0  0  0  0  0  0  0  0  0  0
  140.4730  159.1990  133.4230 C   0  0  0  0  0  0  0  0  0  0  0  0
  140.8140  159.3560  132.0740 O   0  0  0  0  0  0  0  0  0  0  0  0
  146.0260  157.7970  133.7830 C   0  0  0  0  0  0  0  0  0  0  0  0
  147.0500  156.9100  133.4280 C   0  0  0  0  0  0  0  0  0  0  0  0
  143.7939  152.6900  134.6037 H   0  0  0  0  0  0  0  0  0  0  0  0
  142.9018  153.3438  133.1883 H   0  0  0  0  0  0  0  0  0  0  0  0
  143.4587  151.6360  133.1883 H   0  0  0  0  0  0  0  0  0  0  0  0
  144.5675  155.1856  132.5253 H   0  0  0  0  0  0  0  0  0  0  0  0
  145.6498  154.4505  131.2945 H   0  0  0  0  0  0  0  0  0  0  0  0
  143.8958  154.0628  131.2945 H   0  0  0  0  0  0  0  0  0  0  0  0
  145.9938  151.1491  132.8061 H   0  0  0  0  0  0  0  0  0  0  0  0
  144.8410  151.4523  131.4623 H   0  0  0  0  0  0  0  0  0  0  0  0
  146.4503  152.2503  131.4623 H   0  0  0  0  0  0  0  0  0  0  0  0
  150.5870  153.3460  131.9410 H   0  0  0  0  0  0  0  0  0  0  0  0
  150.0094  156.2660  132.1487 H   0  0  0  0  0  0  0  0  0  0  0  0
  149.2736  159.0187  131.9257 H   0  0  0  0  0  0  0  0  0  0  0  0
  147.4552  160.6582  132.5066 H   0  0  0  0  0  0  0  0  0  0  0  0
  145.1121  160.2821  134.9112 H   0  0  0  0  0  0  0  0  0  0  0  0
  145.3176  161.1057  133.3141 H   0  0  0  0  0  0  0  0  0  0  0  0
  141.6334  159.5770  135.1993 H   0  0  0  0  0  0  0  0  0  0  0  0
  140.7880  161.0201  134.5229 H   0  0  0  0  0  0  0  0  0  0  0  0
  140.6288  158.1517  133.7213 H   0  0  0  0  0  0  0  0  0  0  0  0
  139.4163  159.4678  133.5682 H   0  0  0  0  0  0  0  0  0  0  0  0
  141.8060  159.3700  132.0410 H   0  0  0  0  0  0  0  0  0  0  0  0
  145.1335  157.4428  134.3197 H   0  0  0  0  0  0  0  0  0  0  0  0
  1  2  1  0
  2  3  1  0
  2  4  1  0
  2  5  1  0
  5  6  1  0
  6  7  2  0
  6  8  1  0
  8  9  1  0
  9 10  1  0
 10 11  1  0
 10 12  2  0
  9 13  2  0
 13 14  1  0
 14 15  2  0
 15 16  1  0
 16 17  2  0
 17 18  1  0
 18 19  1  0
 19 20  2  0
 19 21  1  0
 21 22  1  0
 22 23  1  0
 23 24  1  0
 17 25  1  0
 25 26  2  0
 26  8  1  0
 26 14  1  0
  1 27  1  0
  1 28  1  0
  1 29  1  0
  3 30  1  0
  3 31  1  0
  3 32  1  0
  4 33  1  0
  4 34  1  0
  4 35  1  0
 11 36  1  0
 13 37  1  0
 15 38  1  0
 16 39  1  0
 18 40  1  0
 18 41  1  0
 22 42  1  0
 22 43  1  0
 23 44  1  0
 23 45  1  0
 24 46  1  0
 25 47  1  0
M  CHG  2  11  -1  21  -1
M  END
>  <UniqueID>  (22) 
22

>  <SMILES>  (22) 
CC(C)(C)OC(=O)n1c(C([NH-])=O)cc2ccc(CC(=O)[N-]CCO)cc21

>  <Energy>  (22) 
76.08596364078126

>  <Genealogy>  (22) 
CC(C)(C)OC(=O)n1c(C([NH-])=O)cc2ccc(CC(=O)[N-]CCO)cc21 (protonated)
CC(C)(C)OC(=O)n1c(C([NH-])=O)cc2ccc(CC(=O)[N-]CCO)cc21 (3D coordinates assigned)
CC(C)(C)OC(=O)n1c(C([NH-])=O)cc2ccc(CC(=O)[N-]CCO)cc21 (optimized conformer: 76.08596364078126 kcal/mol)

>  <smiles>  (22) 
CC(C)(C)OC(=O)n1c(C(N)=O)cc2ccc(CC(=O)NCCO)cc21

>  <score_type>  (22) 
oracle

>  <origin>  (22) 
adg

>  <m_score__min__energy>  (22) 
-6.6399999999999997

>  <m_primary>  (22) 
energy

$$$$
22:0
     RDKit          3D

 37 38  0  0  0  0  0  0  0  0999 V2000
  140.6020  157.5520  136.9690 C   0  0  0  0  0  0  0  0  0  0  0  0
  139.4820  157.6070  136.0940 O   0  0  0  0  0  0  0  0  0  0  0  0
  139.6140  157.6050  134.7010 C   0  0  0  0  0  0  0  0  0  0  0  0
  139.0170  158.4650  133.9980 O   0  0  0  0  0  0  0  0  0  0  0  0
  140.5080  156.5980  134.0460 C   0  0  1  0  0  0  0  0  0  0  0  0
  139.7180  155.8180  132.9920 C   0  0  0  0  0  0  0  0  0  0  0  0
  141.6070  157.2810  133.4430 O   0  0  0  0  0  0  0  0  0  0  0  0
  142.8560  157.4380  134.0590 C   0  0  0  0  0  0  0  0  0  0  0  0
  143.3130  156.5350  134.8110 O   0  0  0  0  0  0  0  0  0  0  0  0
  143.6000  158.6500  133.8560 N   0  0  0  0  0  0  0  0  0  0  0  0
  143.1530  159.9320  133.9850 C   0  0  0  0  0  0  0  0  0  0  0  0
  141.7500  160.3460  134.1830 C   0  0  0  0  0  0  0  0  0  0  0  0
  141.0890  160.1200  135.4250 N   0  0  0  0  0  0  0  0  0  0  0  0
  141.1100  160.8590  133.2270 O   0  0  0  0  0  0  0  0  0  0  0  0
  144.2010  160.8350  133.8220 C   0  0  0  0  0  0  0  0  0  0  0  0
  145.3130  160.0630  133.5790 C   0  0  0  0  0  0  0  0  0  0  0  0
  146.6330  160.4430  133.3490 C   0  0  0  0  0  0  0  0  0  0  0  0
  147.5860  159.4280  133.1560 C   0  0  0  0  0  0  0  0  0  0  0  0
  147.2090  158.0640  133.2170 C   0  0  0  0  0  0  0  0  0  0  0  0
  148.2300  156.9890  132.9850 C   0  0  0  0  0  0  0  0  0  0  0  0
  145.8580  157.7160  133.4380 C   0  0  0  0  0  0  0  0  0  0  0  0
  144.9260  158.7470  133.6080 C   0  0  0  0  0  0  0  0  0  0  0  0
  140.2535  157.5691  138.0122 H   0  0  0  0  0  0  0  0  0  0  0  0
  141.1653  156.6251  136.7857 H   0  0  0  0  0  0  0  0  0  0  0  0
  141.2534  158.4192  136.7857 H   0  0  0  0  0  0  0  0  0  0  0  0
  140.8888  155.8863  134.7933 H   0  0  0  0  0  0  0  0  0  0  0  0
  139.0207  155.1295  133.4917 H   0  0  0  0  0  0  0  0  0  0  0  0
  139.1518  156.5211  132.3635 H   0  0  0  0  0  0  0  0  0  0  0  0
  140.4139  155.2429  132.3635 H   0  0  0  0  0  0  0  0  0  0  0  0
  140.2220  159.5400  135.4750 H   0  0  0  0  0  0  0  0  0  0  0  0
  144.1501  161.9325  133.8762 H   0  0  0  0  0  0  0  0  0  0  0  0
  146.9207  161.5043  133.3193 H   0  0  0  0  0  0  0  0  0  0  0  0
  148.6341  159.6953  132.9558 H   0  0  0  0  0  0  0  0  0  0  0  0
  148.5899  156.6101  133.9529 H   0  0  0  0  0  0  0  0  0  0  0  0
  147.7730  156.1659  132.4160 H   0  0  0  0  0  0  0  0  0  0  0  0
  149.0755  157.4030  132.4160 H   0  0  0  0  0  0  0  0  0  0  0  0
  145.5460  156.6618  133.4756 H   0  0  0  0  0  0  0  0  0  0  0  0
  1  2  1  0
  2  3  1  0
  3  4  2  0
  3  5  1  0
  5  6  1  0
  5  7  1  0
  7  8  1  0
  8  9  2  0
  8 10  1  0
 10 11  1  0
 11 12  1  0
 12 13  1  0
 12 14  2  0
 11 15  2  0
 15 16  1  0
 16 17  2  0
 17 18  1  0
 18 19  2  0
 19 20  1  0
 19 21  1  0
 21 22  2  0
 22 10  1  0
 22 16  1  0
  1 23  1  0
  1 24  1  0
  1 25  1  0
  5 26  1  1
  6 27  1  0
  6 28  1  0
  6 29  1  0
 13 30  1  0
 15 31  1  0
 17 32  1  0
 18 33  1  0
 20 34  1  0
 20 35  1  0
 20 36  1  0
 21 37  1  0
M  CHG  1  13  -1
M  END
>  <UniqueID>  (23) 
23

>  <SMILES>  (23) 
COC(=O)[C@@H](C)OC(=O)n1c(C([NH-])=O)cc2ccc(C)cc21

>  <Energy>  (23) 
68.45237051170122

>  <Genealogy>  (23) 
COC(=O)C(C)OC(=O)n1c(C([NH-])=O)cc2ccc(C)cc21 (protonated)
COC(=O)[C@@H](C)OC(=O)n1c(C([NH-])=O)cc2ccc(C)cc21 (chirality)
COC(=O)[C@@H](C)OC(=O)n1c(C([NH-])=O)cc2ccc(C)cc21 (3D coordinates assigned)
COC(=O)[C@@H](C)OC(=O)n1c(C([NH-])=O)cc2ccc(C)cc21 (optimized conformer: 68.45237051170122 kcal/mol)

>  <smiles>  (23) 
COC(=O)C(C)OC(=O)n1c(C(N)=O)cc2ccc(C)cc21

>  <score_type>  (23) 
oracle

>  <origin>  (23) 
adg

>  <m_score__min__energy>  (23) 
-5.75

>  <m_primary>  (23) 
energy

$$$$
23:0
     RDKit          3D

 39 40  0  0  0  0  0  0  0  0999 V2000
  143.7400  155.9459  134.2867 H   0  0  0  0  0  0  0  0  0  0  0  0
  144.8220  155.8020  134.4230 C   0  0  0  0  0  0  0  0  0  0  0  0
  145.7220  156.6960  133.6560 C   0  0  0  0  0  0  0  0  0  0  0  0
  146.6340  156.2290  132.9240 O   0  0  0  0  0  0  0  0  0  0  0  0
  145.5210  158.1160  133.7000 N   0  0  0  0  0  0  0  0  0  0  0  0
  146.4770  159.0860  133.6530 C   0  0  0  0  0  0  0  0  0  0  0  0
  147.9380  158.8420  133.6450 C   0  0  0  0  0  0  0  0  0  0  0  0
  148.7220  159.7130  133.1820 O   0  0  0  0  0  0  0  0  0  0  0  0
  148.4830  157.6170  134.1420 N   0  0  0  0  0  0  0  0  0  0  0  0
  147.8810  156.8960  134.5960 H   0  0  0  0  0  0  0  0  0  0  0  0
  149.5120  157.4470  134.0970 H   0  0  0  0  0  0  0  0  0  0  0  0
  145.8850  160.3490  133.6700 C   0  0  0  0  0  0  0  0  0  0  0  0
  146.3936  161.3241  133.6494 H   0  0  0  0  0  0  0  0  0  0  0  0
  144.5290  160.1160  133.7180 C   0  0  0  0  0  0  0  0  0  0  0  0
  143.4680  161.0130  133.7330 C   0  0  0  0  0  0  0  0  0  0  0  0
  143.6440  162.0988  133.7316 H   0  0  0  0  0  0  0  0  0  0  0  0
  142.1630  160.4910  133.7500 C   0  0  0  0  0  0  0  0  0  0  0  0
  141.3055  161.1796  133.7714 H   0  0  0  0  0  0  0  0  0  0  0  0
  141.9320  159.0850  133.7400 C   0  0  0  0  0  0  0  0  0  0  0  0
  140.5810  158.5560  133.7470 N   0  0  0  0  0  0  0  0  0  0  0  0
  139.9490  158.1410  135.0060 C   0  0  0  0  0  0  0  0  0  0  0  0
  140.5344  158.5254  135.8543 H   0  0  0  0  0  0  0  0  0  0  0  0
  138.9266  158.5441  135.0534 H   0  0  0  0  0  0  0  0  0  0  0  0
  139.9126  157.0426  135.0534 H   0  0  0  0  0  0  0  0  0  0  0  0
  139.8230  158.4260  132.4960 C   0  0  0  0  0  0  0  0  0  0  0  0
  138.7630  158.2442  132.7268 H   0  0  0  0  0  0  0  0  0  0  0  0
  139.9173  159.3534  131.9121 H   0  0  0  0  0  0  0  0  0  0  0  0
  140.2209  157.5830  131.9121 H   0  0  0  0  0  0  0  0  0  0  0  0
  143.0500  158.2120  133.7220 C   0  0  0  0  0  0  0  0  0  0  0  0
  142.9082  157.1214  133.7021 H   0  0  0  0  0  0  0  0  0  0  0  0
  144.3350  158.7620  133.7300 C   0  0  0  0  0  0  0  0  0  0  0  0
  145.2080  154.8290  135.2720 C   0  0  0  0  0  0  0  0  0  0  0  0
  146.5970  154.6820  135.7600 C   0  0  0  0  0  0  0  0  0  0  0  0
  147.4300  155.6100  135.5790 O   0  0  0  0  0  0  0  0  0  0  0  0
  147.0180  153.4990  136.3540 O   0  0  0  0  0  0  0  0  0  0  0  0
  144.1500  153.9260  135.8460 C   0  0  0  0  0  0  0  0  0  0  0  0
  144.1931  153.9628  136.9445 H   0  0  0  0  0  0  0  0  0  0  0  0
  143.1587  154.2607  135.5065 H   0  0  0  0  0  0  0  0  0  0  0  0
  144.3248  152.8944  135.5065 H   0  0  0  0  0  0  0  0  0  0  0  0
  1  2  1  0
  2  3  1  0
  3  4  2  0
  3  5  1  0
  5  6  1  0
  6  7  1  0
  7  8  2  0
  7  9  1  0
  9 10  1  0
  9 11  1  0
  6 12  2  0
 12 13  1  0
 12 14  1  0
 14 15  2  0
 15 16  1  0
 15 17  1  0
 17 18  1  0
 17 19  2  0
 19 20  1  0
 20 21  1  0
 21 22  1  0
 21 23  1  0
 21 24  1  0
 20 25  1  0
 25 26  1  0
 25 27  1  0
 25 28  1  0
 19 29  1  0
 29 30  1  0
 29 31  2  0
  2 32  2  0
 32 33  1  0
 33 34  2  0
 33 35  1  0
 32 36  1  0
 36 37  1  0
 36 38  1  0
 36 39  1  0
 31  5  1  0
 31 14  1  0
M  CHG  1  35  -1
M  END
>  <UniqueID>  (24) 
24

>  <SMILES>  (24) 
C/C(=C/C(=O)n1c(C(N)=O)cc2ccc(N(C)C)cc21)C(=O)[O-]

>  <Energy>  (24) 
86.28446860015069

>  <Genealogy>  (24) 
CC(=CC(=O)n1c(C(N)=O)cc2ccc(N(C)C)cc21)C(=O)[O-] (protonated)
C/C(=C/C(=O)n1c(C(N)=O)cc2ccc(N(C)C)cc21)C(=O)[O-] (cis-trans isomerization)
C/C(=C/C(=O)n1c(C(N)=O)cc2ccc(N(C)C)cc21)C(=O)[O-] (3D coordinates assigned)
C/C(=C/C(=O)n1c(C(N)=O)cc2ccc(N(C)C)cc21)C(=O)[O-] (optimized conformer: 86.28446860015069 kcal/mol)

>  <smiles>  (24) 
CC(=CC(=O)n1c(C(N)=O)cc2ccc(N(C)C)cc21)C(=O)O

>  <score_type>  (24) 
oracle

>  <origin>  (24) 
adg

>  <m_score__min__energy>  (24) 
-7.1200000000000001

>  <m_primary>  (24) 
energy

$$$$
24:0
     RDKit          3D

 41 42  0  0  0  0  0  0  0  0999 V2000
  144.3390  155.2700  132.5930 C   0  0  0  0  0  0  0  0  0  0  0  0
  145.6170  155.9280  132.8800 N   0  0  0  0  0  0  0  0  0  0  0  0
  146.8140  155.6000  132.0900 C   0  0  0  0  0  0  0  0  0  0  0  0
  147.8550  154.8490  132.9460 C   0  0  1  0  0  0  0  0  0  0  0  0
  148.4750  155.7360  133.8430 O   0  0  0  0  0  0  0  0  0  0  0  0
  147.2240  153.6680  133.7050 C   0  0  0  0  0  0  0  0  0  0  0  0
  147.3040  153.8820  135.0890 O   0  0  0  0  0  0  0  0  0  0  0  0
  145.7040  156.8540  133.9820 C   0  0  0  0  0  0  0  0  0  0  0  0
  146.1070  156.4640  135.1120 O   0  0  0  0  0  0  0  0  0  0  0  0
  145.3430  158.2290  133.8070 N   0  0  0  0  0  0  0  0  0  0  0  0
  146.1680  159.2850  133.5650 C   0  0  0  0  0  0  0  0  0  0  0  0
  147.6440  159.1980  133.4390 C   0  0  0  0  0  0  0  0  0  0  0  0
  148.3990  158.2490  134.1970 N   0  0  0  0  0  0  0  0  0  0  0  0
  148.2550  159.9650  132.6480 O   0  0  0  0  0  0  0  0  0  0  0  0
  145.4230  160.4650  133.4920 C   0  0  0  0  0  0  0  0  0  0  0  0
  144.1150  160.0890  133.7040 C   0  0  0  0  0  0  0  0  0  0  0  0
  142.9520  160.8510  133.7400 C   0  0  0  0  0  0  0  0  0  0  0  0
  141.7350  160.1870  133.9780 C   0  0  0  0  0  0  0  0  0  0  0  0
  141.7030  158.7840  134.1910 C   0  0  0  0  0  0  0  0  0  0  0  0
  140.3860  158.0790  134.3970 C   0  0  0  0  0  0  0  0  0  0  0  0
  139.4720  158.5430  133.4680 F   0  0  0  0  0  0  0  0  0  0  0  0
  139.8990  158.3240  135.6700 F   0  0  0  0  0  0  0  0  0  0  0  0
  140.5290  156.7110  134.2450 F   0  0  0  0  0  0  0  0  0  0  0  0
  142.9040  158.0430  134.1210 C   0  0  0  0  0  0  0  0  0  0  0  0
  144.0960  158.7330  133.8900 C   0  0  0  0  0  0  0  0  0  0  0  0
  143.8388  155.0125  133.5382 H   0  0  0  0  0  0  0  0  0  0  0  0
  143.6985  155.9504  132.0127 H   0  0  0  0  0  0  0  0  0  0  0  0
  144.5207  154.3534  132.0127 H   0  0  0  0  0  0  0  0  0  0  0  0
  146.5213  154.9648  131.2409 H   0  0  0  0  0  0  0  0  0  0  0  0
  147.2654  156.5376  131.7334 H   0  0  0  0  0  0  0  0  0  0  0  0
  148.6143  154.4355  132.2659 H   0  0  0  0  0  0  0  0  0  0  0  0
  147.8390  155.9040  134.5880 H   0  0  0  0  0  0  0  0  0  0  0  0
  146.1679  153.5713  133.4129 H   0  0  0  0  0  0  0  0  0  0  0  0
  147.7699  152.7470  133.4526 H   0  0  0  0  0  0  0  0  0  0  0  0
  147.0850  154.8380  135.2420 H   0  0  0  0  0  0  0  0  0  0  0  0
  149.4360  158.2030  134.0860 H   0  0  0  0  0  0  0  0  0  0  0  0
  147.9460  157.5730  134.8510 H   0  0  0  0  0  0  0  0  0  0  0  0
  145.8016  161.4807  133.3046 H   0  0  0  0  0  0  0  0  0  0  0  0
  142.9830  161.9399  133.5870 H   0  0  0  0  0  0  0  0  0  0  0  0
  140.7973  160.7616  133.9993 H   0  0  0  0  0  0  0  0  0  0  0  0
  142.9002  156.9501  134.2453 H   0  0  0  0  0  0  0  0  0  0  0  0
  1  2  1  0
  2  3  1  0
  3  4  1  0
  4  5  1  0
  4  6  1  0
  6  7  1  0
  2  8  1  0
  8  9  2  0
  8 10  1  0
 10 11  1  0
 11 12  1  0
 12 13  1  0
 12 14  2  0
 11 15  2  0
 15 16  1  0
 16 17  2  0
 17 18  1  0
 18 19  2  0
 19 20  1  0
 20 21  1  0
 20 22  1  0
 20 23  1  0
 19 24  1  0
 24 25  2  0
 25 10  1  0
 25 16  1  0
  1 26  1  0
  1 27  1  0
  1 28  1  0
  3 29  1  0
  3 30  1  0
  4 31  1  6
  5 32  1  0
  6 33  1  0
  6 34  1  0
  7 35  1  0
 13 36  1  0
 13 37  1  0
 15 38  1  0
 17 39  1  0
 18 40  1  0
 24 41  1  0
M  END
>  <UniqueID>  (25) 
25

>  <SMILES>  (25) 
CN(C[C@@H](O)CO)C(=O)n1c(C(N)=O)cc2ccc(C(F)(F)F)cc21

>  <Energy>  (25) 
75.26823207337718

>  <Genealogy>  (25) 
CN(C[C@@H](O)CO)C(=O)n1c(C(N)=O)cc2ccc(C(F)(F)F)cc21 (3D coordinates assigned)
CN(C[C@@H](O)CO)C(=O)n1c(C(N)=O)cc2ccc(C(F)(F)F)cc21 (optimized conformer: 75.26823207337718 kcal/mol)

>  <smiles>  (25) 
CN(C[C@@H](O)CO)C(=O)n1c(C(N)=O)cc2ccc(C(F)(F)F)cc21

>  <score_type>  (25) 
oracle

>  <origin>  (25) 
adg

>  <m_score__min__energy>  (25) 
-5.7000000000000002

>  <m_primary>  (25) 
energy

$$$$
25:0
     RDKit          3D

 35 36  0  0  0  0  0  0  0  0999 V2000
  143.6110  161.3960  133.7210 N   0  0  0  0  0  0  0  0  0  0  0  0
  145.0140  161.3420  133.9650 C   0  0  0  0  0  0  0  0  0  0  0  0
  145.6080  162.3690  134.3890 O   0  0  0  0  0  0  0  0  0  0  0  0
  145.7890  160.1170  133.6740 C   0  0  0  0  0  0  0  0  0  0  0  0
  147.1740  160.1050  133.5240 C   0  0  0  0  0  0  0  0  0  0  0  0
  147.4920  158.8120  133.1760 C   0  0  0  0  0  0  0  0  0  0  0  0
  148.7310  158.2370  132.9120 C   0  0  0  0  0  0  0  0  0  0  0  0
  148.7680  156.8680  132.6030 C   0  0  0  0  0  0  0  0  0  0  0  0
  147.5750  156.0980  132.5750 C   0  0  0  0  0  0  0  0  0  0  0  0
  147.6230  154.6940  132.2440 N   0  0  0  0  0  0  0  0  0  0  0  0
  148.1990  153.9030  133.3430 C   0  0  0  0  0  0  0  0  0  0  0  0
  149.1870  152.8910  132.8400 C   0  0  0  0  0  0  0  0  0  0  0  0
  149.6140  151.9870  133.6050 O   0  0  0  0  0  0  0  0  0  0  0  0
  149.6030  152.9250  131.5160 O   0  0  0  0  0  0  0  0  0  0  0  0
  146.3360  156.7210  132.8450 C   0  0  0  0  0  0  0  0  0  0  0  0
  146.3270  158.0910  133.1310 C   0  0  0  0  0  0  0  0  0  0  0  0
  145.2710  158.8790  133.4370 N   0  0  0  0  0  0  0  0  0  0  0  0
  143.9060  158.4570  133.5830 C   0  0  0  0  0  0  0  0  0  0  0  0
  143.3110  157.9010  132.6200 O   0  0  0  0  0  0  0  0  0  0  0  0
  143.2480  158.6490  134.8020 O   0  0  0  0  0  0  0  0  0  0  0  0
  141.8480  158.4450  134.9610 C   0  0  0  0  0  0  0  0  0  0  0  0
  141.1220  159.7220  134.6920 C   0  0  0  0  0  0  0  0  0  0  0  0
  140.9270  160.0860  133.5430 O   0  0  0  0  0  0  0  0  0  0  0  0
  143.0360  160.5250  133.6960 H   0  0  0  0  0  0  0  0  0  0  0  0
  147.8663  160.9496  133.6557 H   0  0  0  0  0  0  0  0  0  0  0  0
  149.6529  158.8363  132.9444 H   0  0  0  0  0  0  0  0  0  0  0  0
  149.7316  156.3865  132.3801 H   0  0  0  0  0  0  0  0  0  0  0  0
  146.6680  154.3360  132.0080 H   0  0  0  0  0  0  0  0  0  0  0  0
  148.2180  154.5640  131.3910 H   0  0  0  0  0  0  0  0  0  0  0  0
  148.7090  154.5823  134.0420 H   0  0  0  0  0  0  0  0  0  0  0  0
  147.3808  153.3642  133.8433 H   0  0  0  0  0  0  0  0  0  0  0  0
  145.4003  156.1428  132.8308 H   0  0  0  0  0  0  0  0  0  0  0  0
  141.5077  157.6744  134.2537 H   0  0  0  0  0  0  0  0  0  0  0  0
  141.6412  158.1170  135.9904 H   0  0  0  0  0  0  0  0  0  0  0  0
  140.7621  160.3360  135.5308 H   0  0  0  0  0  0  0  0  0  0  0  0
  1  2  1  0
  2  3  2  0
  2  4  1  0
  4  5  2  0
  5  6  1  0
  6  7  2  0
  7  8  1  0
  8  9  2  0
  9 10  1  0
 10 11  1  0
 11 12  1  0
 12 13  2  0
 12 14  1  0
  9 15  1  0
 15 16  2  0
 16 17  1  0
 17 18  1  0
 18 19  2  0
 18 20  1  0
 20 21  1  0
 21 22  1  0
 22 23  2  0
 17  4  1  0
 16  6  1  0
  1 24  1  0
  5 25  1  0
  7 26  1  0
  8 27  1  0
 10 28  1  0
 10 29  1  0
 11 30  1  0
 11 31  1  0
 15 32  1  0
 21 33  1  0
 21 34  1  0
 22 35  1  0
M  CHG  3   1  -1  10   1  14  -1
M  END
>  <UniqueID>  (26) 
26

>  <SMILES>  (26) 
[NH-]C(=O)c1cc2ccc([NH2+]CC(=O)[O-])cc2n1C(=O)OCC=O

>  <Energy>  (26) 
71.20543389070713

>  <Genealogy>  (26) 
[NH-]C(=O)c1cc2ccc([NH2+]CC(=O)[O-])cc2n1C(=O)OCC=O (protonated)
[NH-]C(=O)c1cc2ccc([NH2+]CC(=O)[O-])cc2n1C(=O)OCC=O (3D coordinates assigned)
[NH-]C(=O)c1cc2ccc([NH2+]CC(=O)[O-])cc2n1C(=O)OCC=O (optimized conformer: 71.20543389070713 kcal/mol)

>  <smiles>  (26) 
NC(=O)c1cc2ccc(NCC(=O)O)cc2n1C(=O)OCC=O

>  <score_type>  (26) 
oracle

>  <origin>  (26) 
adg

>  <m_score__min__energy>  (26) 
-5.3799999999999999

>  <m_primary>  (26) 
energy

$$$$
26:0
     RDKit          3D

 50 52  0  0  0  0  0  0  0  0999 V2000
  144.9250  152.7000  132.6530 C   0  0  0  0  0  0  0  0  0  0  0  0
  144.1020  153.9880  132.4620 C   0  0  0  0  0  0  0  0  0  0  0  0
  142.5960  153.7010  132.6200 C   0  0  0  0  0  0  0  0  0  0  0  0
  144.3560  154.5340  131.0500 C   0  0  0  0  0  0  0  0  0  0  0  0
  144.5240  154.9970  133.3930 O   0  0  0  0  0  0  0  0  0  0  0  0
  145.7700  155.0640  134.0380 C   0  0  0  0  0  0  0  0  0  0  0  0
  145.9540  154.4850  135.1430 O   0  0  0  0  0  0  0  0  0  0  0  0
  146.8400  155.8140  133.4410 N   0  0  0  0  0  0  0  0  0  0  0  0
  148.0690  155.3550  133.0680 C   0  0  0  0  0  0  0  0  0  0  0  0
  148.4900  153.9350  133.0530 C   0  0  0  0  0  0  0  0  0  0  0  0
  147.7420  152.9450  133.7610 N   0  0  0  0  0  0  0  0  0  0  0  0
  149.5340  153.5920  132.4380 O   0  0  0  0  0  0  0  0  0  0  0  0
  148.8630  156.4040  132.6060 C   0  0  0  0  0  0  0  0  0  0  0  0
  148.0750  157.5270  132.7030 C   0  0  0  0  0  0  0  0  0  0  0  0
  148.3660  158.8510  132.3960 C   0  0  0  0  0  0  0  0  0  0  0  0
  147.3680  159.8140  132.6170 C   0  0  0  0  0  0  0  0  0  0  0  0
  146.1040  159.4420  133.1350 C   0  0  0  0  0  0  0  0  0  0  0  0
  145.1040  160.4570  133.3350 N   0  0  0  0  0  0  0  0  0  0  0  0
  144.0410  160.3590  134.3360 C   0  0  0  0  0  0  0  0  0  0  0  0
  142.8010  159.7700  133.7190 C   0  0  0  0  0  0  0  0  0  0  0  0
  141.6720  160.5690  133.4780 C   0  0  0  0  0  0  0  0  0  0  0  0
  140.5110  160.0070  132.9390 C   0  0  0  0  0  0  0  0  0  0  0  0
  140.4670  158.6410  132.6440 C   0  0  0  0  0  0  0  0  0  0  0  0
  141.5830  157.8360  132.8920 C   0  0  0  0  0  0  0  0  0  0  0  0
  142.7440  158.3960  133.4310 C   0  0  0  0  0  0  0  0  0  0  0  0
  145.8540  158.0870  133.4580 C   0  0  0  0  0  0  0  0  0  0  0  0
  146.8590  157.1460  133.2080 C   0  0  0  0  0  0  0  0  0  0  0  0
  145.0517  152.5018  133.7276 H   0  0  0  0  0  0  0  0  0  0  0  0
  144.3987  151.8556  132.1839 H   0  0  0  0  0  0  0  0  0  0  0  0
  145.9124  152.8228  132.1839 H   0  0  0  0  0  0  0  0  0  0  0  0
  142.3421  153.6526  133.6892 H   0  0  0  0  0  0  0  0  0  0  0  0
  142.0174  154.5050  132.1418 H   0  0  0  0  0  0  0  0  0  0  0  0
  142.3536  152.7405  132.1418 H   0  0  0  0  0  0  0  0  0  0  0  0
  144.8191  155.5294  131.1196 H   0  0  0  0  0  0  0  0  0  0  0  0
  145.0298  153.8531  130.5093 H   0  0  0  0  0  0  0  0  0  0  0  0
  143.4011  154.6108  130.5093 H   0  0  0  0  0  0  0  0  0  0  0  0
  148.0690  151.9540  133.7770 H   0  0  0  0  0  0  0  0  0  0  0  0
  146.8430  153.1810  134.2370 H   0  0  0  0  0  0  0  0  0  0  0  0
  149.8992  156.3458  132.2415 H   0  0  0  0  0  0  0  0  0  0  0  0
  149.3486  159.1360  131.9920 H   0  0  0  0  0  0  0  0  0  0  0  0
  147.5708  160.8699  132.3849 H   0  0  0  0  0  0  0  0  0  0  0  0
  145.0210  161.2190  132.6240 H   0  0  0  0  0  0  0  0  0  0  0  0
  144.3774  159.7149  135.1618 H   0  0  0  0  0  0  0  0  0  0  0  0
  143.8106  161.3654  134.7156 H   0  0  0  0  0  0  0  0  0  0  0  0
  141.7011  161.6429  133.7145 H   0  0  0  0  0  0  0  0  0  0  0  0
  139.6319  160.6396  132.7469 H   0  0  0  0  0  0  0  0  0  0  0  0
  139.5544  158.1997  132.2168 H   0  0  0  0  0  0  0  0  0  0  0  0
  141.5469  156.7608  132.6625 H   0  0  0  0  0  0  0  0  0  0  0  0
  143.6176  157.7581  133.6308 H   0  0  0  0  0  0  0  0  0  0  0  0
  144.8922  157.7808  133.8953 H   0  0  0  0  0  0  0  0  0  0  0  0
  1  2  1  0
  2  3  1  0
  2  4  1  0
  2  5  1  0
  5  6  1  0
  6  7  2  0
  6  8  1  0
  8  9  1  0
  9 10  1  0
 10 11  1  0
 10 12  2  0
  9 13  2  0
 13 14  1  0
 14 15  2  0
 15 16  1  0
 16 17  2  0
 17 18  1  0
 18 19  1  0
 19 20  1  0
 20 21  2  0
 21 22  1  0
 22 23  2  0
 23 24  1  0
 24 25  2  0
 17 26  1  0
 26 27  2  0
 27  8  1  0
 27 14  1  0
 25 20  1  0
  1 28  1  0
  1 29  1  0
  1 30  1  0
  3 31  1  0
  3 32  1  0
  3 33  1  0
  4 34  1  0
  4 35  1  0
  4 36  1  0
 11 37  1  0
 11 38  1  0
 13 39  1  0
 15 40  1  0
 16 41  1  0
 18 42  1  0
 19 43  1  0
 19 44  1  0
 21 45  1  0
 22 46  1  0
 23 47  1  0
 24 48  1  0
 25 49  1  0
 26 50  1  0
M  END
>  <UniqueID>  (27) 
27

>  <SMILES>  (27) 
CC(C)(C)OC(=O)n1c(C(N)=O)cc2ccc(NCc3ccccc3)cc21

>  <Energy>  (27) 
83.99759292581653

>  <Genealogy>  (27) 
CC(C)(C)OC(=O)n1c(C(N)=O)cc2ccc(NCc3ccccc3)cc21 (3D coordinates assigned)
CC(C)(C)OC(=O)n1c(C(N)=O)cc2ccc(NCc3ccccc3)cc21 (optimized conformer: 83.99759292581653 kcal/mol)

>  <smiles>  (27) 
CC(C)(C)OC(=O)n1c(C(N)=O)cc2ccc(NCc3ccccc3)cc21

>  <score_type>  (27) 
oracle

>  <origin>  (27) 
adg

>  <m_score__min__energy>  (27) 
-9.4499999999999993

>  <m_primary>  (27) 
energy

$$$$
27:0
     RDKit          3D

 38 41  0  0  0  0  0  0  0  0999 V2000
  149.9930  157.9330  131.8690 N   0  0  0  0  0  0  0  0  0  0  0  0
  149.3350  159.1860  132.0340 C   0  0  0  0  0  0  0  0  0  0  0  0
  149.9380  160.2440  131.7060 O   0  0  0  0  0  0  0  0  0  0  0  0
  147.9460  159.2630  132.5340 C   0  0  0  0  0  0  0  0  0  0  0  0
  147.3550  160.4480  132.9630 C   0  0  0  0  0  0  0  0  0  0  0  0
  146.0610  160.1130  133.2870 C   0  0  0  0  0  0  0  0  0  0  0  0
  145.0380  160.9060  133.7860 C   0  0  0  0  0  0  0  0  0  0  0  0
  143.8060  160.2960  134.0710 C   0  0  0  0  0  0  0  0  0  0  0  0
  143.6040  158.8990  133.8630 C   0  0  0  0  0  0  0  0  0  0  0  0
  142.3220  158.2710  134.1720 N   0  0  0  0  0  0  0  0  0  0  0  0
  141.3250  159.0040  134.9900 C   0  0  0  0  0  0  0  0  0  0  0  0
  140.0140  158.2120  135.1700 C   0  0  1  0  0  0  0  0  0  0  0  0
  139.1660  158.2230  133.8980 C   0  0  0  0  0  0  0  0  0  0  0  0
  139.6080  156.9680  133.1870 C   0  0  0  0  0  0  0  0  0  0  0  0
  140.6550  156.3890  134.1350 C   0  0  1  0  0  0  0  0  0  0  0  0
  142.0780  156.8630  133.7750 C   0  0  0  0  0  0  0  0  0  0  0  0
  140.3400  156.8700  135.4140 O   0  0  0  0  0  0  0  0  0  0  0  0
  144.6920  158.1310  133.3590 C   0  0  0  0  0  0  0  0  0  0  0  0
  145.9030  158.7730  133.0630 C   0  0  0  0  0  0  0  0  0  0  0  0
  147.0540  158.2330  132.5970 N   0  0  0  0  0  0  0  0  0  0  0  0
  147.3140  156.8470  132.3090 C   0  0  0  0  0  0  0  0  0  0  0  0
  148.1810  156.2030  132.9550 O   0  0  0  0  0  0  0  0  0  0  0  0
  149.4890  157.1100  131.4700 H   0  0  0  0  0  0  0  0  0  0  0  0
  147.8233  161.4412  133.0289 H   0  0  0  0  0  0  0  0  0  0  0  0
  145.1879  161.9828  133.9537 H   0  0  0  0  0  0  0  0  0  0  0  0
  142.9797  160.9075  134.4626 H   0  0  0  0  0  0  0  0  0  0  0  0
  141.7579  159.2003  135.9820 H   0  0  0  0  0  0  0  0  0  0  0  0
  141.0820  159.9387  134.4635 H   0  0  0  0  0  0  0  0  0  0  0  0
  139.4525  158.6760  135.9942 H   0  0  0  0  0  0  0  0  0  0  0  0
  138.0930  158.1851  134.1374 H   0  0  0  0  0  0  0  0  0  0  0  0
  139.2991  159.1334  133.2952 H   0  0  0  0  0  0  0  0  0  0  0  0
  138.7669  156.2717  133.0536 H   0  0  0  0  0  0  0  0  0  0  0  0
  139.9955  157.1560  132.1748 H   0  0  0  0  0  0  0  0  0  0  0  0
  140.6422  155.2908  134.0735 H   0  0  0  0  0  0  0  0  0  0  0  0
  142.8058  156.2193  134.2907 H   0  0  0  0  0  0  0  0  0  0  0  0
  142.1866  156.7989  132.6822 H   0  0  0  0  0  0  0  0  0  0  0  0
  144.5838  157.0474  133.2037 H   0  0  0  0  0  0  0  0  0  0  0  0
  146.7466  156.3433  131.5126 H   0  0  0  0  0  0  0  0  0  0  0  0
  1  2  1  0
  2  3  2  0
  2  4  1  0
  4  5  2  0
  5  6  1  0
  6  7  2  0
  7  8  1  0
  8  9  2  0
  9 10  1  0
 10 11  1  0
 11 12  1  0
 12 13  1  0
 13 14  1  0
 14 15  1  0
 15 16  1  0
 15 17  1  0
  9 18  1  0
 18 19  2  0
 19 20  1  0
 20 21  1  0
 21 22  2  0
 20  4  1  0
 19  6  1  0
 16 10  1  0
 17 12  1  0
  1 23  1  0
  5 24  1  0
  7 25  1  0
  8 26  1  0
 11 27  1  0
 11 28  1  0
 12 29  1  1
 13 30  1  0
 13 31  1  0
 14 32  1  0
 14 33  1  0
 15 34  1  1
 16 35  1  0
 16 36  1  0
 18 37  1  0
 21 38  1  0
M  CHG  1   1  -1
M  END
>  <UniqueID>  (28) 
28

>  <SMILES>  (28) 
[NH-]C(=O)c1cc2ccc(N3C[C@H]4CC[C@@H](C3)O4)cc2n1C=O

>  <Energy>  (28) 
89.1423001418576

>  <Genealogy>  (28) 
[NH-]C(=O)c1cc2ccc(N3CC4CCC(C3)O4)cc2n1C=O (protonated)
[NH-]C(=O)c1cc2ccc(N3C[C@H]4CC[C@@H](C3)O4)cc2n1C=O (chirality)
[NH-]C(=O)c1cc2ccc(N3C[C@H]4CC[C@@H](C3)O4)cc2n1C=O (3D coordinates assigned)
[NH-]C(=O)c1cc2ccc(N3C[C@H]4CC[C@@H](C3)O4)cc2n1C=O (nonaromatic ring conformer: 89.1423001418576 kcal/mol)

>  <smiles>  (28) 
NC(=O)c1cc2ccc(N3CC4CCC(C3)O4)cc2n1C=O

>  <score_type>  (28) 
oracle

>  <origin>  (28) 
adg

>  <m_score__min__energy>  (28) 
-7.3099999999999996

>  <m_primary>  (28) 
energy

$$$$
28:0
     RDKit          3D

 45 48  0  0  0  0  0  0  0  0999 V2000
  148.4200  159.0440  133.4070 C   0  0  0  0  0  0  0  0  0  0  0  0
  146.9550  159.3620  133.4590 C   0  0  0  0  0  0  0  0  0  0  0  0
  146.5230  160.6860  133.7140 C   0  0  0  0  0  0  0  0  0  0  0  0
  145.1540  160.9850  133.8130 C   0  0  0  0  0  0  0  0  0  0  0  0
  144.2450  159.9420  133.6570 C   0  0  0  0  0  0  0  0  0  0  0  0
  142.8710  159.9490  133.7280 C   0  0  0  0  0  0  0  0  0  0  0  0
  142.4810  158.6290  133.5050 C   0  0  0  0  0  0  0  0  0  0  0  0
  141.0720  158.1930  133.4010 C   0  0  0  0  0  0  0  0  0  0  0  0
  140.7330  156.9740  132.7370 N   0  0  0  0  0  0  0  0  0  0  0  0
  140.1560  158.8790  133.9270 O   0  0  0  0  0  0  0  0  0  0  0  0
  143.5740  157.8360  133.3080 N   0  0  0  0  0  0  0  0  0  0  0  0
  143.6070  156.4160  133.0920 C   0  0  0  0  0  0  0  0  0  0  0  0
  143.6190  155.9530  131.9170 O   0  0  0  0  0  0  0  0  0  0  0  0
  143.6000  155.5510  134.1890 O   0  0  0  0  0  0  0  0  0  0  0  0
  142.4140  155.1870  134.8860 C   0  0  0  0  0  0  0  0  0  0  0  0
  141.6450  154.2630  134.0650 N   0  0  0  0  0  0  0  0  0  0  0  0
  141.8670  152.9450  133.9230 C   0  0  0  0  0  0  0  0  0  0  0  0
  140.9410  152.5020  132.9980 C   0  0  0  0  0  0  0  0  0  0  0  0
  140.7550  151.1330  132.4710 C   0  0  0  0  0  0  0  0  0  0  0  0
  139.5540  150.7470  131.8470 C   0  0  0  0  0  0  0  0  0  0  0  0
  139.3970  149.4440  131.3620 C   0  0  0  0  0  0  0  0  0  0  0  0
  140.4340  148.5180  131.4930 C   0  0  0  0  0  0  0  0  0  0  0  0
  141.6300  148.8910  132.1110 C   0  0  0  0  0  0  0  0  0  0  0  0
  141.7920  150.1910  132.5970 C   0  0  0  0  0  0  0  0  0  0  0  0
  140.2280  153.5500  132.6390 O   0  0  0  0  0  0  0  0  0  0  0  0
  140.6470  154.6090  133.2700 N   0  0  0  0  0  0  0  0  0  0  0  0
  144.6460  158.6560  133.4040 C   0  0  0  0  0  0  0  0  0  0  0  0
  146.0060  158.3270  133.3220 C   0  0  0  0  0  0  0  0  0  0  0  0
  148.8132  158.9586  134.4308 H   0  0  0  0  0  0  0  0  0  0  0  0
  148.5700  158.0924  132.8761 H   0  0  0  0  0  0  0  0  0  0  0  0
  148.9511  159.8478  132.8761 H   0  0  0  0  0  0  0  0  0  0  0  0
  147.2661  161.4878  133.8357 H   0  0  0  0  0  0  0  0  0  0  0  0
  144.8107  162.0117  134.0078 H   0  0  0  0  0  0  0  0  0  0  0  0
  142.2182  160.8132  133.9201 H   0  0  0  0  0  0  0  0  0  0  0  0
  139.7390  156.6560  132.7000 H   0  0  0  0  0  0  0  0  0  0  0  0
  141.4570  156.4050  132.2450 H   0  0  0  0  0  0  0  0  0  0  0  0
  142.6795  154.7018  135.8369 H   0  0  0  0  0  0  0  0  0  0  0  0
  141.8149  156.0859  135.0936 H   0  0  0  0  0  0  0  0  0  0  0  0
  142.6298  152.3424  134.4378 H   0  0  0  0  0  0  0  0  0  0  0  0
  138.7348  151.4732  131.7401 H   0  0  0  0  0  0  0  0  0  0  0  0
  138.4551  149.1485  130.8767 H   0  0  0  0  0  0  0  0  0  0  0  0
  140.3091  147.4946  131.1095 H   0  0  0  0  0  0  0  0  0  0  0  0
  142.4455  148.1602  132.2152 H   0  0  0  0  0  0  0  0  0  0  0  0
  142.7366  150.4796  133.0813 H   0  0  0  0  0  0  0  0  0  0  0  0
  146.3255  157.2877  133.1550 H   0  0  0  0  0  0  0  0  0  0  0  0
  1  2  1  0
  2  3  2  0
  3  4  1  0
  4  5  2  0
  5  6  1  0
  6  7  2  0
  7  8  1  0
  8  9  1  0
  8 10  2  0
  7 11  1  0
 11 12  1  0
 12 13  2  0
 12 14  1  0
 14 15  1  0
 15 16  1  0
 16 17  1  0
 17 18  2  0
 18 19  1  0
 19 20  2  0
 20 21  1  0
 21 22  2  0
 22 23  1  0
 23 24  2  0
 18 25  1  0
 25 26  1  0
 11 27  1  0
 27 28  2  0
 28  2  1  0
 27  5  1  0
 26 16  2  0
 24 19  1  0
  1 29  1  0
  1 30  1  0
  1 31  1  0
  3 32  1  0
  4 33  1  0
  6 34  1  0
  9 35  1  0
  9 36  1  0
 15 37  1  0
 15 38  1  0
 17 39  1  0
 20 40  1  0
 21 41  1  0
 22 42  1  0
 23 43  1  0
 24 44  1  0
 28 45  1  0
M  CHG  1  16   1
M  END
>  <UniqueID>  (29) 
29

>  <SMILES>  (29) 
Cc1ccc2cc(C(N)=O)n(C(=O)OC[n+]3cc(-c4ccccc4)on3)c2c1

>  <Energy>  (29) 
121.32300175931913

>  <Genealogy>  (29) 
Cc1ccc2cc(C(N)=O)n(C(=O)OC[n+]3cc(-c4ccccc4)on3)c2c1 (3D coordinates assigned)
Cc1ccc2cc(C(N)=O)n(C(=O)OC[n+]3cc(-c4ccccc4)on3)c2c1 (optimized conformer: 121.32300175931913 kcal/mol)

>  <smiles>  (29) 
Cc1ccc2cc(C(N)=O)n(C(=O)OC[n+]3cc(-c4ccccc4)on3)c2c1

>  <score_type>  (29) 
oracle

>  <origin>  (29) 
adg

>  <m_score__min__energy>  (29) 
-9.25

>  <m_primary>  (29) 
energy

$$$$
29:0
     RDKit          3D

 56 60  0  0  0  0  0  0  0  0999 V2000
  146.6550  152.9760  132.7390 C   0  0  0  0  0  0  0  0  0  0  0  0
  147.8170  153.9590  132.9880 C   0  0  0  0  0  0  0  0  0  0  0  0
  147.7890  154.3990  134.4620 C   0  0  0  0  0  0  0  0  0  0  0  0
  149.1720  153.2850  132.6950 C   0  0  0  0  0  0  0  0  0  0  0  0
  147.6550  155.1430  132.1940 O   0  0  0  0  0  0  0  0  0  0  0  0
  147.9630  156.4570  132.5810 C   0  0  0  0  0  0  0  0  0  0  0  0
  149.1650  156.8290  132.6370 O   0  0  0  0  0  0  0  0  0  0  0  0
  146.9000  157.3940  132.8670 N   0  0  0  0  0  0  0  0  0  0  0  0
  147.0270  158.7340  133.0970 C   0  0  0  0  0  0  0  0  0  0  0  0
  148.2500  159.5350  132.9110 C   0  0  0  0  0  0  0  0  0  0  0  0
  149.4970  159.0940  133.4460 N   0  0  0  0  0  0  0  0  0  0  0  0
  148.2090  160.5760  132.1990 O   0  0  0  0  0  0  0  0  0  0  0  0
  145.8250  159.2890  133.5150 C   0  0  0  0  0  0  0  0  0  0  0  0
  144.9280  158.2510  133.5080 C   0  0  0  0  0  0  0  0  0  0  0  0
  143.5700  158.2500  133.8110 C   0  0  0  0  0  0  0  0  0  0  0  0
  142.8670  157.0430  133.6950 C   0  0  0  0  0  0  0  0  0  0  0  0
  143.5260  155.8570  133.2760 C   0  0  0  0  0  0  0  0  0  0  0  0
  142.7800  154.5840  133.1140 C   0  0  0  0  0  0  0  0  0  0  0  0
  141.3960  154.5020  133.3230 C   0  0  0  0  0  0  0  0  0  0  0  0
  140.7460  153.2820  133.1540 C   0  0  0  0  0  0  0  0  0  0  0  0
  141.4880  152.1530  132.7810 C   0  0  0  0  0  0  0  0  0  0  0  0
  140.8640  150.8690  132.5910 N   0  0  0  0  0  0  0  0  0  0  0  0
  141.5660  149.6150  132.8180 C   0  0  0  0  0  0  0  0  0  0  0  0
  140.5680  148.5080  132.5120 C   0  0  2  0  0  0  0  0  0  0  0  0
  140.0830  148.4190  131.0720 C   0  0  0  0  0  0  0  0  0  0  0  0
  139.2630  149.1720  132.1100 C   0  0  2  0  0  0  0  0  0  0  0  0
  139.4820  150.6760  132.1770 C   0  0  0  0  0  0  0  0  0  0  0  0
  142.8300  152.2850  132.6000 N   0  0  0  0  0  0  0  0  0  0  0  0
  143.4510  153.4540  132.7620 N   0  0  0  0  0  0  0  0  0  0  0  0
  144.9070  155.9010  132.9720 C   0  0  0  0  0  0  0  0  0  0  0  0
  145.5930  157.1180  133.1100 C   0  0  0  0  0  0  0  0  0  0  0  0
  146.2509  152.6341  133.7033 H   0  0  0  0  0  0  0  0  0  0  0  0
  145.8626  153.4821  132.1681 H   0  0  0  0  0  0  0  0  0  0  0  0
  147.0227  152.1107  132.1681 H   0  0  0  0  0  0  0  0  0  0  0  0
  147.8454  153.5123  135.1105 H   0  0  0  0  0  0  0  0  0  0  0  0
  148.6471  155.0567  134.6647 H   0  0  0  0  0  0  0  0  0  0  0  0
  146.8544  154.9426  134.6647 H   0  0  0  0  0  0  0  0  0  0  0  0
  149.6708  153.0369  133.6435 H   0  0  0  0  0  0  0  0  0  0  0  0
  149.0061  152.3644  132.1162 H   0  0  0  0  0  0  0  0  0  0  0  0
  149.8061  153.9727  132.1162 H   0  0  0  0  0  0  0  0  0  0  0  0
  150.3560  159.6760  133.3260 H   0  0  0  0  0  0  0  0  0  0  0  0
  149.5710  158.1800  133.9490 H   0  0  0  0  0  0  0  0  0  0  0  0
  145.6331  160.3361  133.7922 H   0  0  0  0  0  0  0  0  0  0  0  0
  143.0621  159.1711  134.1327 H   0  0  0  0  0  0  0  0  0  0  0  0
  141.7930  157.0141  133.9311 H   0  0  0  0  0  0  0  0  0  0  0  0
  140.8271  155.3958  133.6186 H   0  0  0  0  0  0  0  0  0  0  0  0
  139.6601  153.2051  133.3118 H   0  0  0  0  0  0  0  0  0  0  0  0
  141.8999  149.5489  133.8640 H   0  0  0  0  0  0  0  0  0  0  0  0
  142.4600  149.5355  132.1821 H   0  0  0  0  0  0  0  0  0  0  0  0
  140.9301  147.7408  133.2122 H   0  0  0  0  0  0  0  0  0  0  0  0
  139.7189  147.4612  130.6720 H   0  0  0  0  0  0  0  0  0  0  0  0
  140.5113  148.6658  130.0893 H   0  0  0  0  0  0  0  0  0  0  0  0
  138.1945  149.1328  132.3685 H   0  0  0  0  0  0  0  0  0  0  0  0
  138.7980  151.1283  132.9102 H   0  0  0  0  0  0  0  0  0  0  0  0
  139.2852  151.1526  131.2053 H   0  0  0  0  0  0  0  0  0  0  0  0
  145.4343  154.9970  132.6333 H   0  0  0  0  0  0  0  0  0  0  0  0
  1  2  1  0
  2  3  1  0
  2  4  1  0
  2  5  1  0
  5  6  1  0
  6  7  2  0
  6  8  1  0
  8  9  1  0
  9 10  1  0
 10 11  1  0
 10 12  2  0
  9 13  2  0
 13 14  1  0
 14 15  2  0
 15 16  1  0
 16 17  2  0
 17 18  1  0
 18 19  2  0
 19 20  1  0
 20 21  2  0
 21 22  1  0
 22 23  1  0
 23 24  1  0
 24 25  1  0
 25 26  1  0
 26 27  1  0
 21 28  1  0
 28 29  2  0
 17 30  1  0
 30 31  2  0
 31  8  1  0
 31 14  1  0
 29 18  1  0
 27 22  1  0
 26 24  1  0
  1 32  1  0
  1 33  1  0
  1 34  1  0
  3 35  1  0
  3 36  1  0
  3 37  1  0
  4 38  1  0
  4 39  1  0
  4 40  1  0
 11 41  1  0
 11 42  1  0
 13 43  1  0
 15 44  1  0
 16 45  1  0
 19 46  1  0
 20 47  1  0
 23 48  1  0
 23 49  1  0
 24 50  1  1
 25 51  1  0
 25 52  1  0
 26 53  1  1
 27 54  1  0
 27 55  1  0
 30 56  1  0
M  END
>  <UniqueID>  (30) 
30

>  <SMILES>  (30) 
CC(C)(C)OC(=O)n1c(C(N)=O)cc2ccc(-c3ccc(N4C[C@H]5C[C@H]5C4)nn3)cc21

>  <Energy>  (30) 
367.5408030856858

>  <Genealogy>  (30) 
CC(C)(C)OC(=O)n1c(C(N)=O)cc2ccc(-c3ccc(N4C[C@H]5C[C@H]5C4)nn3)cc21 (chirality)
CC(C)(C)OC(=O)n1c(C(N)=O)cc2ccc(-c3ccc(N4C[C@H]5C[C@H]5C4)nn3)cc21 (3D coordinates assigned)
CC(C)(C)OC(=O)n1c(C(N)=O)cc2ccc(-c3ccc(N4C[C@H]5C[C@H]5C4)nn3)cc21 (nonaromatic ring conformer: 367.5408030856858 kcal/mol)

>  <smiles>  (30) 
CC(C)(C)OC(=O)n1c(C(N)=O)cc2ccc(-c3ccc(N4CC5CC5C4)nn3)cc21

>  <score_type>  (30) 
oracle

>  <origin>  (30) 
adg

>  <m_score__min__energy>  (30) 
-10.59

>  <m_primary>  (30) 
energy

$$$$
30:0
     RDKit          3D

 42 43  0  0  0  0  0  0  0  0999 V2000
  137.6910  159.8330  131.1190 C   0  0  0  0  0  0  0  0  0  0  0  0
  139.4490  159.4750  130.8000 S   0  0  0  0  0  0  0  0  0  0  0  0
  139.9310  159.2800  132.5540 C   0  0  0  0  0  0  0  0  0  0  0  0
  139.0960  158.2060  133.2510 C   0  0  0  0  0  0  0  0  0  0  0  0
  139.2230  158.2970  134.6700 O   0  0  0  0  0  0  0  0  0  0  0  0
  140.4410  158.1960  135.3510 C   0  0  0  0  0  0  0  0  0  0  0  0
  140.9690  159.2130  135.8790 O   0  0  0  0  0  0  0  0  0  0  0  0
  141.0640  156.9480  135.4370 O   0  0  0  0  0  0  0  0  0  0  0  0
  142.4710  156.7760  135.2970 C   0  0  0  0  0  0  0  0  0  0  0  0
  143.0570  157.9910  134.8400 O   0  0  0  0  0  0  0  0  0  0  0  0
  143.7170  158.0980  133.6120 C   0  0  0  0  0  0  0  0  0  0  0  0
  143.2440  157.5380  132.5860 O   0  0  0  0  0  0  0  0  0  0  0  0
  144.9530  158.8250  133.5300 N   0  0  0  0  0  0  0  0  0  0  0  0
  145.1360  160.1760  133.5510 C   0  0  0  0  0  0  0  0  0  0  0  0
  144.0960  161.1900  133.8240 C   0  0  0  0  0  0  0  0  0  0  0  0
  142.7180  160.8310  133.8870 N   0  0  0  0  0  0  0  0  0  0  0  0
  144.4330  162.3820  134.0550 O   0  0  0  0  0  0  0  0  0  0  0  0
  146.4800  160.4920  133.3600 C   0  0  0  0  0  0  0  0  0  0  0  0
  147.1230  159.2820  133.2320 C   0  0  0  0  0  0  0  0  0  0  0  0
  148.4690  159.0030  133.0100 C   0  0  0  0  0  0  0  0  0  0  0  0
  148.8510  157.6570  132.8870 C   0  0  0  0  0  0  0  0  0  0  0  0
  147.8890  156.6210  132.9910 C   0  0  0  0  0  0  0  0  0  0  0  0
  148.3000  155.1910  132.8070 C   0  0  0  0  0  0  0  0  0  0  0  0
  146.5310  156.9440  133.1970 C   0  0  0  0  0  0  0  0  0  0  0  0
  146.1810  158.2920  133.3380 C   0  0  0  0  0  0  0  0  0  0  0  0
  137.5152  159.8688  132.2043 H   0  0  0  0  0  0  0  0  0  0  0  0
  137.4275  160.8032  130.6727 H   0  0  0  0  0  0  0  0  0  0  0  0
  137.0691  159.0431  130.6727 H   0  0  0  0  0  0  0  0  0  0  0  0
  140.9922  158.9947  132.6030 H   0  0  0  0  0  0  0  0  0  0  0  0
  139.7575  160.2375  133.0670 H   0  0  0  0  0  0  0  0  0  0  0  0
  138.0392  158.3376  132.9757 H   0  0  0  0  0  0  0  0  0  0  0  0
  139.4589  157.2183  132.9303 H   0  0  0  0  0  0  0  0  0  0  0  0
  142.9052  156.5033  136.2702 H   0  0  0  0  0  0  0  0  0  0  0  0
  142.6709  155.9768  134.5681 H   0  0  0  0  0  0  0  0  0  0  0  0
  142.4010  160.0140  134.4540 H   0  0  0  0  0  0  0  0  0  0  0  0
  146.9306  161.4947  133.3201 H   0  0  0  0  0  0  0  0  0  0  0  0
  149.2104  159.8120  132.9333 H   0  0  0  0  0  0  0  0  0  0  0  0
  149.9066  157.4044  132.7083 H   0  0  0  0  0  0  0  0  0  0  0  0
  148.4357  154.7189  133.7913 H   0  0  0  0  0  0  0  0  0  0  0  0
  147.5197  154.6543  132.2474 H   0  0  0  0  0  0  0  0  0  0  0  0
  149.2461  155.1505  132.2474 H   0  0  0  0  0  0  0  0  0  0  0  0
  145.7657  156.1554  133.2457 H   0  0  0  0  0  0  0  0  0  0  0  0
  1  2  1  0
  2  3  1  0
  3  4  1  0
  4  5  1  0
  5  6  1  0
  6  7  2  0
  6  8  1  0
  8  9  1  0
  9 10  1  0
 10 11  1  0
 11 12  2  0
 11 13  1  0
 13 14  1  0
 14 15  1  0
 15 16  1  0
 15 17  2  0
 14 18  2  0
 18 19  1  0
 19 20  2  0
 20 21  1  0
 21 22  2  0
 22 23  1  0
 22 24  1  0
 24 25  2  0
 25 13  1  0
 25 19  1  0
  1 26  1  0
  1 27  1  0
  1 28  1  0
  3 29  1  0
  3 30  1  0
  4 31  1  0
  4 32  1  0
  9 33  1  0
  9 34  1  0
 16 35  1  0
 18 36  1  0
 20 37  1  0
 21 38  1  0
 23 39  1  0
 23 40  1  0
 23 41  1  0
 24 42  1  0
M  CHG  1  16  -1
M  END
>  <UniqueID>  (31) 
31

>  <SMILES>  (31) 
CSCCOC(=O)OCOC(=O)n1c(C([NH-])=O)cc2ccc(C)cc21

>  <Energy>  (31) 
71.75932538274134

>  <Genealogy>  (31) 
CSCCOC(=O)OCOC(=O)n1c(C([NH-])=O)cc2ccc(C)cc21 (protonated)
CSCCOC(=O)OCOC(=O)n1c(C([NH-])=O)cc2ccc(C)cc21 (3D coordinates assigned)
CSCCOC(=O)OCOC(=O)n1c(C([NH-])=O)cc2ccc(C)cc21 (optimized conformer: 71.75932538274134 kcal/mol)

>  <smiles>  (31) 
CSCCOC(=O)OCOC(=O)n1c(C(N)=O)cc2ccc(C)cc21

>  <score_type>  (31) 
oracle

>  <origin>  (31) 
adg

>  <m_score__min__energy>  (31) 
-6.2300000000000004

>  <m_primary>  (31) 
energy

$$$$
31:0
     RDKit          3D

 42 43  0  0  0  0  0  0  0  0999 V2000
  138.9600  160.3130  130.9100 C   0  0  0  0  0  0  0  0  0  0  0  0
  137.9220  159.5570  131.4950 O   0  0  0  0  0  0  0  0  0  0  0  0
  138.4580  158.5660  132.3530 C   0  0  0  0  0  0  0  0  0  0  0  0
  139.9840  158.5110  132.2440 C   0  0  0  0  0  0  0  0  0  0  0  0
  140.5280  157.5380  133.2240 N   0  0  0  0  0  0  0  0  0  0  0  0
  139.6600  156.3510  133.3170 C   0  0  0  0  0  0  0  0  0  0  0  0
  141.9150  157.1340  132.9070 C   0  0  0  0  0  0  0  0  0  0  0  0
  142.8600  157.5710  133.9940 C   0  0  0  0  0  0  0  0  0  0  0  0
  142.8970  156.9430  135.0850 O   0  0  0  0  0  0  0  0  0  0  0  0
  143.6480  158.7620  133.8400 N   0  0  0  0  0  0  0  0  0  0  0  0
  143.2550  160.0570  133.9990 C   0  0  0  0  0  0  0  0  0  0  0  0
  141.8690  160.5170  134.2140 C   0  0  0  0  0  0  0  0  0  0  0  0
  140.9780  159.7390  135.0100 N   0  0  0  0  0  0  0  0  0  0  0  0
  141.4740  161.6090  133.7320 O   0  0  0  0  0  0  0  0  0  0  0  0
  144.3420  160.9170  133.8520 C   0  0  0  0  0  0  0  0  0  0  0  0
  145.4180  160.1020  133.5850 C   0  0  0  0  0  0  0  0  0  0  0  0
  146.7540  160.4220  133.3550 C   0  0  0  0  0  0  0  0  0  0  0  0
  147.6540  159.3680  133.1250 C   0  0  0  0  0  0  0  0  0  0  0  0
  147.2090  158.0220  133.1310 C   0  0  0  0  0  0  0  0  0  0  0  0
  148.1890  156.9100  132.8920 C   0  0  0  0  0  0  0  0  0  0  0  0
  149.3550  157.4240  132.3550 F   0  0  0  0  0  0  0  0  0  0  0  0
  148.4770  156.2790  134.0890 F   0  0  0  0  0  0  0  0  0  0  0  0
  145.8450  157.7350  133.3680 C   0  0  0  0  0  0  0  0  0  0  0  0
  144.9710  158.8060  133.5820 C   0  0  0  0  0  0  0  0  0  0  0  0
  139.5773  160.7626  131.7018 H   0  0  0  0  0  0  0  0  0  0  0  0
  139.5847  159.6569  130.2861 H   0  0  0  0  0  0  0  0  0  0  0  0
  138.5272  161.1089  130.2861 H   0  0  0  0  0  0  0  0  0  0  0  0
  138.1800  158.8007  133.3911 H   0  0  0  0  0  0  0  0  0  0  0  0
  138.0506  157.5884  132.0558 H   0  0  0  0  0  0  0  0  0  0  0  0
  140.2656  158.2000  131.2272 H   0  0  0  0  0  0  0  0  0  0  0  0
  140.3975  159.5078  132.4572 H   0  0  0  0  0  0  0  0  0  0  0  0
  139.4826  156.1085  134.3752 H   0  0  0  0  0  0  0  0  0  0  0  0
  138.6997  156.5593  132.8226 H   0  0  0  0  0  0  0  0  0  0  0  0
  140.1497  155.4990  132.8226 H   0  0  0  0  0  0  0  0  0  0  0  0
  141.9586  156.0392  132.8097 H   0  0  0  0  0  0  0  0  0  0  0  0
  142.2156  157.6141  131.9641 H   0  0  0  0  0  0  0  0  0  0  0  0
  141.0240  158.6950  135.0010 H   0  0  0  0  0  0  0  0  0  0  0  0
  144.3401  162.0141  133.9324 H   0  0  0  0  0  0  0  0  0  0  0  0
  147.0940  161.4681  133.3535 H   0  0  0  0  0  0  0  0  0  0  0  0
  148.7152  159.5895  132.9383 H   0  0  0  0  0  0  0  0  0  0  0  0
  147.7492  156.1860  132.1903 H   0  0  0  0  0  0  0  0  0  0  0  0
  145.4808  156.6972  133.3837 H   0  0  0  0  0  0  0  0  0  0  0  0
  1  2  1  0
  2  3  1  0
  3  4  1  0
  4  5  1  0
  5  6  1  0
  5  7  1  0
  7  8  1  0
  8  9  2  0
  8 10  1  0
 10 11  1  0
 11 12  1  0
 12 13  1  0
 12 14  2  0
 11 15  2  0
 15 16  1  0
 16 17  2  0
 17 18  1  0
 18 19  2  0
 19 20  1  0
 20 21  1  0
 20 22  1  0
 19 23  1  0
 23 24  2  0
 24 10  1  0
 24 16  1  0
  1 25  1  0
  1 26  1  0
  1 27  1  0
  3 28  1  0
  3 29  1  0
  4 30  1  0
  4 31  1  0
  6 32  1  0
  6 33  1  0
  6 34  1  0
  7 35  1  0
  7 36  1  0
 13 37  1  0
 15 38  1  0
 17 39  1  0
 18 40  1  0
 20 41  1  0
 23 42  1  0
M  CHG  1  13  -1
M  END
>  <UniqueID>  (32) 
32

>  <SMILES>  (32) 
COCCN(C)CC(=O)n1c(C([NH-])=O)cc2ccc(C(F)F)cc21

>  <Energy>  (32) 
84.52713157782985

>  <Genealogy>  (32) 
COCCN(C)CC(=O)n1c(C([NH-])=O)cc2ccc(C(F)F)cc21 (protonated)
COCCN(C)CC(=O)n1c(C([NH-])=O)cc2ccc(C(F)F)cc21 (3D coordinates assigned)
COCCN(C)CC(=O)n1c(C([NH-])=O)cc2ccc(C(F)F)cc21 (optimized conformer: 84.52713157782985 kcal/mol)

>  <smiles>  (32) 
COCCN(C)CC(=O)n1c(C(N)=O)cc2ccc(C(F)F)cc21

>  <score_type>  (32) 
oracle

>  <origin>  (32) 
adg

>  <m_score__min__energy>  (32) 
-5.79

>  <m_primary>  (32) 
energy

$$$$
32:0
     RDKit          3D

 46 47  0  0  0  0  0  0  0  0999 V2000
  140.5810  154.8250  133.3810 C   0  0  0  0  0  0  0  0  0  0  0  0
  141.9860  154.7310  133.4260 O   0  0  0  0  0  0  0  0  0  0  0  0
  142.6690  155.9190  133.5860 C   0  0  0  0  0  0  0  0  0  0  0  0
  143.7280  155.9130  134.2670 O   0  0  0  0  0  0  0  0  0  0  0  0
  142.2670  157.2240  133.0080 C   0  0  0  0  0  0  0  0  0  0  0  0
  143.3860  158.0790  132.6930 O   0  0  0  0  0  0  0  0  0  0  0  0
  143.9350  158.9410  133.6360 C   0  0  0  0  0  0  0  0  0  0  0  0
  143.2590  159.3420  134.5440 O   0  0  0  0  0  0  0  0  0  0  0  0
  145.3060  159.3560  133.5250 N   0  0  0  0  0  0  0  0  0  0  0  0
  145.9000  160.5600  133.7090 C   0  0  0  0  0  0  0  0  0  0  0  0
  145.2860  161.8950  134.1100 C   0  0  0  0  0  0  0  0  0  0  0  0
  145.9650  162.8810  134.8670 N   0  0  0  0  0  0  0  0  0  0  0  0
  144.1470  162.1150  133.7420 O   0  0  0  0  0  0  0  0  0  0  0  0
  147.2530  160.4530  133.4830 C   0  0  0  0  0  0  0  0  0  0  0  0
  147.4940  159.1440  133.1460 C   0  0  0  0  0  0  0  0  0  0  0  0
  148.7200  158.5280  132.8200 C   0  0  0  0  0  0  0  0  0  0  0  0
  148.7100  157.1710  132.5120 C   0  0  0  0  0  0  0  0  0  0  0  0
  147.5040  156.4720  132.5320 C   0  0  0  0  0  0  0  0  0  0  0  0
  147.5120  155.0720  132.2270 N   0  0  0  0  0  0  0  0  0  0  0  0
  147.7910  154.2340  133.4260 C   0  0  2  0  0  0  0  0  0  0  0  0
  148.1300  152.8020  132.9890 C   0  0  0  0  0  0  0  0  0  0  0  0
  146.5490  154.1310  134.2610 C   0  0  0  0  0  0  0  0  0  0  0  0
  145.1690  153.2910  133.3910 P   0  0  0  0  0  0  0  0  0  0  0  0
  145.0340  153.5290  131.9350 O   0  0  0  0  0  0  0  0  0  0  0  0
  143.7640  152.9790  134.2960 O   0  0  0  0  0  0  0  0  0  0  0  0
  146.3050  157.1280  132.8710 C   0  0  0  0  0  0  0  0  0  0  0  0
  146.3460  158.5090  133.1750 C   0  0  0  0  0  0  0  0  0  0  0  0
  140.1823  154.8517  134.4058 H   0  0  0  0  0  0  0  0  0  0  0  0
  140.2918  155.7445  132.8510 H   0  0  0  0  0  0  0  0  0  0  0  0
  140.1719  153.9522  132.8510 H   0  0  0  0  0  0  0  0  0  0  0  0
  141.7001  157.0366  132.0841 H   0  0  0  0  0  0  0  0  0  0  0  0
  141.6639  157.7439  133.7669 H   0  0  0  0  0  0  0  0  0  0  0  0
  146.9990  162.9940  134.7200 H   0  0  0  0  0  0  0  0  0  0  0  0
  147.9972  161.2596  133.5578 H   0  0  0  0  0  0  0  0  0  0  0  0
  149.6573  159.1037  132.8095 H   0  0  0  0  0  0  0  0  0  0  0  0
  149.6462  156.6540  132.2548 H   0  0  0  0  0  0  0  0  0  0  0  0
  146.5800  154.8250  131.8890 H   0  0  0  0  0  0  0  0  0  0  0  0
  148.1730  154.8530  131.4720 H   0  0  0  0  0  0  0  0  0  0  0  0
  148.6212  154.6925  133.9832 H   0  0  0  0  0  0  0  0  0  0  0  0
  148.2790  152.1727  133.8788 H   0  0  0  0  0  0  0  0  0  0  0  0
  147.3030  152.3967  132.3875 H   0  0  0  0  0  0  0  0  0  0  0  0
  149.0510  152.8105  132.3875 H   0  0  0  0  0  0  0  0  0  0  0  0
  146.7857  153.5635  135.1731 H   0  0  0  0  0  0  0  0  0  0  0  0
  146.2196  155.1554  134.4892 H   0  0  0  0  0  0  0  0  0  0  0  0
  143.1800  153.7850  134.2760 H   0  0  0  0  0  0  0  0  0  0  0  0
  145.3536  156.5766  132.8989 H   0  0  0  0  0  0  0  0  0  0  0  0
  1  2  1  0
  2  3  1  0
  3  4  2  0
  3  5  1  0
  5  6  1  0
  6  7  1  0
  7  8  2  0
  7  9  1  0
  9 10  1  0
 10 11  1  0
 11 12  1  0
 11 13  2  0
 10 14  2  0
 14 15  1  0
 15 16  2  0
 16 17  1  0
 17 18  2  0
 18 19  1  0
 19 20  1  0
 20 21  1  0
 20 22  1  0
 22 23  1  0
 23 24  2  0
 23 25  1  0
 18 26  1  0
 26 27  2  0
 27  9  1  0
 27 15  1  0
  1 28  1  0
  1 29  1  0
  1 30  1  0
  5 31  1  0
  5 32  1  0
 12 33  1  0
 14 34  1  0
 16 35  1  0
 17 36  1  0
 19 37  1  0
 19 38  1  0
 20 39  1  1
 21 40  1  0
 21 41  1  0
 21 42  1  0
 22 43  1  0
 22 44  1  0
 25 45  1  0
 26 46  1  0
M  CHG  3  12  -1  19   1  23   1
M  END
>  <UniqueID>  (33) 
33

>  <SMILES>  (33) 
COC(=O)COC(=O)n1c(C([NH-])=O)cc2ccc([NH2+][C@H](C)C[P+](=O)O)cc21

>  <Energy>  (33) 
158.41698504305955

>  <Genealogy>  (33) 
COC(=O)COC(=O)n1c(C([NH-])=O)cc2ccc([NH2+]C(C)C[P+](=O)O)cc21 (protonated)
COC(=O)COC(=O)n1c(C([NH-])=O)cc2ccc([NH2+][C@H](C)C[P+](=O)O)cc21 (chirality)
COC(=O)COC(=O)n1c(C([NH-])=O)cc2ccc([NH2+][C@H](C)C[P+](=O)O)cc21 (3D coordinates assigned)
COC(=O)COC(=O)n1c(C([NH-])=O)cc2ccc([NH2+][C@H](C)C[P+](=O)O)cc21 (optimized conformer: 158.41698504305955 kcal/mol)

>  <smiles>  (33) 
COC(=O)COC(=O)n1c(C(N)=O)cc2ccc(NC(C)C[P+](=O)O)cc21

>  <score_type>  (33) 
oracle

>  <origin>  (33) 
adg

>  <m_score__min__energy>  (33) 
-6.4199999999999999

>  <m_primary>  (33) 
energy

$$$$
33:0
     RDKit          3D

 53 56  0  0  0  0  0  0  0  0999 V2000
  140.9920  159.5840  136.7810 C   0  0  0  0  0  0  0  0  0  0  0  0
  140.3320  159.2580  135.5070 N   0  0  0  0  0  0  0  0  0  0  0  0
  139.6910  157.9300  135.5450 C   0  0  0  0  0  0  0  0  0  0  0  0
  139.4270  157.3820  134.1260 C   0  0  1  0  0  0  0  0  0  0  0  0
  139.1540  158.5220  133.1300 C   0  0  0  0  0  0  0  0  0  0  0  0
  140.3400  159.4930  133.0430 C   0  0  0  0  0  0  0  0  0  0  0  0
  141.2010  159.4520  134.3220 C   0  0  2  0  0  0  0  0  0  0  0  0
  142.3350  158.4030  134.2110 C   0  0  0  0  0  0  0  0  0  0  0  0
  141.9440  157.0330  133.8080 N   0  0  0  0  0  0  0  0  0  0  0  0
  143.0240  156.1170  133.5590 C   0  0  0  0  0  0  0  0  0  0  0  0
  142.7580  154.7380  133.3630 C   0  0  0  0  0  0  0  0  0  0  0  0
  143.8060  153.8330  133.1270 C   0  0  0  0  0  0  0  0  0  0  0  0
  145.1030  154.3360  133.0830 C   0  0  0  0  0  0  0  0  0  0  0  0
  146.3000  153.6830  132.8930 C   0  0  0  0  0  0  0  0  0  0  0  0
  147.2770  154.6760  132.9490 C   0  0  0  0  0  0  0  0  0  0  0  0
  148.7110  154.4220  132.7050 C   0  0  0  0  0  0  0  0  0  0  0  0
  149.6330  155.5080  132.6970 N   0  0  0  0  0  0  0  0  0  0  0  0
  149.1380  153.2480  132.5400 O   0  0  0  0  0  0  0  0  0  0  0  0
  146.7070  155.8930  133.1700 N   0  0  0  0  0  0  0  0  0  0  0  0
  147.3710  157.1540  133.3540 C   0  0  0  0  0  0  0  0  0  0  0  0
  147.9040  157.4270  134.4640 O   0  0  0  0  0  0  0  0  0  0  0  0
  147.4380  158.0640  132.2930 O   0  0  0  0  0  0  0  0  0  0  0  0
  148.0160  159.3630  132.4080 C   0  0  0  0  0  0  0  0  0  0  0  0
  149.4970  159.3400  132.0280 C   0  0  0  0  0  0  0  0  0  0  0  0
  150.0440  158.0720  132.2660 O   0  0  0  0  0  0  0  0  0  0  0  0
  145.3770  155.6690  133.2500 C   0  0  0  0  0  0  0  0  0  0  0  0
  144.3540  156.5880  133.5090 C   0  0  0  0  0  0  0  0  0  0  0  0
  140.5770  156.4860  133.6420 C   0  0  0  0  0  0  0  0  0  0  0  0
  140.3514  159.2676  137.6173 H   0  0  0  0  0  0  0  0  0  0  0  0
  141.9568  159.0588  136.8391 H   0  0  0  0  0  0  0  0  0  0  0  0
  141.1613  160.6693  136.8391 H   0  0  0  0  0  0  0  0  0  0  0  0
  140.3507  157.2310  136.0800 H   0  0  0  0  0  0  0  0  0  0  0  0
  138.7236  158.0310  136.0588 H   0  0  0  0  0  0  0  0  0  0  0  0
  138.5230  156.7575  134.1790 H   0  0  0  0  0  0  0  0  0  0  0  0
  138.9723  158.0904  132.1346 H   0  0  0  0  0  0  0  0  0  0  0  0
  138.2754  159.0828  133.4816 H   0  0  0  0  0  0  0  0  0  0  0  0
  140.9660  159.2159  132.1820 H   0  0  0  0  0  0  0  0  0  0  0  0
  139.9429  160.5123  132.9275 H   0  0  0  0  0  0  0  0  0  0  0  0
  141.7109  160.4186  134.4475 H   0  0  0  0  0  0  0  0  0  0  0  0
  143.0588  158.7734  133.4701 H   0  0  0  0  0  0  0  0  0  0  0  0
  142.7303  158.2993  135.2323 H   0  0  0  0  0  0  0  0  0  0  0  0
  141.7207  154.3734  133.3961 H   0  0  0  0  0  0  0  0  0  0  0  0
  143.6079  152.7608  132.9816 H   0  0  0  0  0  0  0  0  0  0  0  0
  146.4532  152.6058  132.7313 H   0  0  0  0  0  0  0  0  0  0  0  0
  149.5590  156.2810  133.3970 H   0  0  0  0  0  0  0  0  0  0  0  0
  147.4835  160.0541  131.7381 H   0  0  0  0  0  0  0  0  0  0  0  0
  147.9277  159.6943  133.4532 H   0  0  0  0  0  0  0  0  0  0  0  0
  149.6009  159.5848  130.9606 H   0  0  0  0  0  0  0  0  0  0  0  0
  150.0334  160.0800  132.6401 H   0  0  0  0  0  0  0  0  0  0  0  0
  149.5010  157.6560  132.9860 H   0  0  0  0  0  0  0  0  0  0  0  0
  144.5807  157.6523  133.6699 H   0  0  0  0  0  0  0  0  0  0  0  0
  140.4216  156.2890  132.5710 H   0  0  0  0  0  0  0  0  0  0  0  0
  140.5390  155.5882  134.2764 H   0  0  0  0  0  0  0  0  0  0  0  0
  1  2  1  0
  2  3  1  0
  3  4  1  0
  4  5  1  0
  5  6  1  0
  6  7  1  0
  7  8  1  0
  8  9  1  0
  9 10  1  0
 10 11  2  0
 11 12  1  0
 12 13  2  0
 13 14  1  0
 14 15  2  0
 15 16  1  0
 16 17  1  0
 16 18  2  0
 15 19  1  0
 19 20  1  0
 20 21  2  0
 20 22  1  0
 22 23  1  0
 23 24  1  0
 24 25  1  0
 19 26  1  0
 26 27  2  0
  9 28  1  0
  7  2  1  0
 27 10  1  0
 28  4  1  0
 26 13  1  0
  1 29  1  0
  1 30  1  0
  1 31  1  0
  3 32  1  0
  3 33  1  0
  4 34  1  1
  5 35  1  0
  5 36  1  0
  6 37  1  0
  6 38  1  0
  7 39  1  1
  8 40  1  0
  8 41  1  0
 11 42  1  0
 12 43  1  0
 14 44  1  0
 17 45  1  0
 23 46  1  0
 23 47  1  0
 24 48  1  0
 24 49  1  0
 25 50  1  0
 27 51  1  0
 28 52  1  0
 28 53  1  0
M  CHG  1  17  -1
M  END
>  <UniqueID>  (34) 
34

>  <SMILES>  (34) 
CN1C[C@H]2CC[C@@H]1CN(c1ccc3cc(C([NH-])=O)n(C(=O)OCCO)c3c1)C2

>  <Energy>  (34) 
112.6010556422562

>  <Genealogy>  (34) 
CN1CC2CCC1CN(c1ccc3cc(C([NH-])=O)n(C(=O)OCCO)c3c1)C2 (protonated)
CN1C[C@H]2CC[C@@H]1CN(c1ccc3cc(C([NH-])=O)n(C(=O)OCCO)c3c1)C2 (chirality)
CN1C[C@H]2CC[C@@H]1CN(c1ccc3cc(C([NH-])=O)n(C(=O)OCCO)c3c1)C2 (3D coordinates assigned)
CN1C[C@H]2CC[C@@H]1CN(c1ccc3cc(C([NH-])=O)n(C(=O)OCCO)c3c1)C2 (nonaromatic ring conformer: 112.6010556422562 kcal/mol)

>  <smiles>  (34) 
CN1CC2CCC1CN(c1ccc3cc(C(N)=O)n(C(=O)OCCO)c3c1)C2

>  <score_type>  (34) 
oracle

>  <origin>  (34) 
adg

>  <m_score__min__energy>  (34) 
-6.0899999999999999

>  <m_primary>  (34) 
energy

$$$$
34:0
     RDKit          3D

 38 39  0  0  0  0  0  0  0  0999 V2000
  139.6910  158.3510  133.4210 C   0  0  0  0  0  0  0  0  0  0  0  0
  140.5980  159.4510  133.8610 C   0  0  0  0  0  0  0  0  0  0  0  0
  140.7190  160.4860  133.1500 O   0  0  0  0  0  0  0  0  0  0  0  0
  141.3630  159.3030  135.0590 N   0  0  0  0  0  0  0  0  0  0  0  0
  141.4290  158.0570  135.8130 C   0  0  0  0  0  0  0  0  0  0  0  0
  142.3130  157.0430  135.0900 C   0  0  0  0  0  0  0  0  0  0  0  0
  143.6130  157.5810  134.8380 O   0  0  0  0  0  0  0  0  0  0  0  0
  144.0110  158.1140  133.6050 C   0  0  0  0  0  0  0  0  0  0  0  0
  143.2480  158.0410  132.6030 O   0  0  0  0  0  0  0  0  0  0  0  0
  145.2850  158.7700  133.4900 N   0  0  0  0  0  0  0  0  0  0  0  0
  145.5210  160.1120  133.4860 C   0  0  0  0  0  0  0  0  0  0  0  0
  144.5290  161.1590  133.7990 C   0  0  0  0  0  0  0  0  0  0  0  0
  143.1290  160.8990  133.7020 N   0  0  0  0  0  0  0  0  0  0  0  0
  144.9210  162.2850  134.2050 O   0  0  0  0  0  0  0  0  0  0  0  0
  146.8580  160.3780  133.2100 C   0  0  0  0  0  0  0  0  0  0  0  0
  147.4480  159.1450  133.0550 C   0  0  0  0  0  0  0  0  0  0  0  0
  148.7690  158.8190  132.7630 C   0  0  0  0  0  0  0  0  0  0  0  0
  149.0980  157.4580  132.6340 C   0  0  0  0  0  0  0  0  0  0  0  0
  148.1030  156.4600  132.7770 C   0  0  0  0  0  0  0  0  0  0  0  0
  148.4730  155.0100  132.6750 C   0  0  0  0  0  0  0  0  0  0  0  0
  146.7750  156.8270  133.0810 C   0  0  0  0  0  0  0  0  0  0  0  0
  146.4780  158.1900  133.2270 C   0  0  0  0  0  0  0  0  0  0  0  0
  139.2735  157.8447  134.3039 H   0  0  0  0  0  0  0  0  0  0  0  0
  138.8724  158.7700  132.8174 H   0  0  0  0  0  0  0  0  0  0  0  0
  140.2583  157.6273  132.8174 H   0  0  0  0  0  0  0  0  0  0  0  0
  141.8489  158.2583  136.8096 H   0  0  0  0  0  0  0  0  0  0  0  0
  140.4143  157.6427  135.9068 H   0  0  0  0  0  0  0  0  0  0  0  0
  142.4116  156.1427  135.7143 H   0  0  0  0  0  0  0  0  0  0  0  0
  141.8444  156.7956  134.1260 H   0  0  0  0  0  0  0  0  0  0  0  0
  142.4430  161.6720  133.8500 H   0  0  0  0  0  0  0  0  0  0  0  0
  142.7690  159.9310  133.5500 H   0  0  0  0  0  0  0  0  0  0  0  0
  147.3404  161.3635  133.1323 H   0  0  0  0  0  0  0  0  0  0  0  0
  149.5318  159.6014  132.6371 H   0  0  0  0  0  0  0  0  0  0  0  0
  150.1367  157.1659  132.4203 H   0  0  0  0  0  0  0  0  0  0  0  0
  148.5809  154.5872  133.6848 H   0  0  0  0  0  0  0  0  0  0  0  0
  147.6845  154.4676  132.1327 H   0  0  0  0  0  0  0  0  0  0  0  0
  149.4250  154.9118  132.1327 H   0  0  0  0  0  0  0  0  0  0  0  0
  145.9923  156.0634  133.2005 H   0  0  0  0  0  0  0  0  0  0  0  0
  1  2  1  0
  2  3  2  0
  2  4  1  0
  4  5  1  0
  5  6  1  0
  6  7  1  0
  7  8  1  0
  8  9  2  0
  8 10  1  0
 10 11  1  0
 11 12  1  0
 12 13  1  0
 12 14  2  0
 11 15  2  0
 15 16  1  0
 16 17  2  0
 17 18  1  0
 18 19  2  0
 19 20  1  0
 19 21  1  0
 21 22  2  0
 22 10  1  0
 22 16  1  0
  1 23  1  0
  1 24  1  0
  1 25  1  0
  5 26  1  0
  5 27  1  0
  6 28  1  0
  6 29  1  0
 13 30  1  0
 13 31  1  0
 15 32  1  0
 17 33  1  0
 18 34  1  0
 20 35  1  0
 20 36  1  0
 20 37  1  0
 21 38  1  0
M  CHG  1   4  -1
M  END
>  <UniqueID>  (35) 
35

>  <SMILES>  (35) 
CC(=O)[N-]CCOC(=O)n1c(C(N)=O)cc2ccc(C)cc21

>  <Energy>  (35) 
69.02720645675707

>  <Genealogy>  (35) 
CC(=O)[N-]CCOC(=O)n1c(C(N)=O)cc2ccc(C)cc21 (protonated)
CC(=O)[N-]CCOC(=O)n1c(C(N)=O)cc2ccc(C)cc21 (3D coordinates assigned)
CC(=O)[N-]CCOC(=O)n1c(C(N)=O)cc2ccc(C)cc21 (optimized conformer: 69.02720645675707 kcal/mol)

>  <smiles>  (35) 
CC(=O)NCCOC(=O)n1c(C(N)=O)cc2ccc(C)cc21

>  <score_type>  (35) 
oracle

>  <origin>  (35) 
adg

>  <m_score__min__energy>  (35) 
-6.1699999999999999

>  <m_primary>  (35) 
energy

$$$$
35:0
     RDKit          3D

 54 55  0  0  0  0  0  0  0  0999 V2000
  150.0780  150.4630  131.0240 C   0  0  0  0  0  0  0  0  0  0  0  0
  149.4130  150.3710  132.3370 N   0  0  0  0  0  0  0  0  0  0  0  0
  147.9540  150.4340  132.1470 C   0  0  0  0  0  0  0  0  0  0  0  0
  149.8620  151.4550  133.2380 C   0  0  0  0  0  0  0  0  0  0  0  0
  149.6100  152.8260  132.5950 C   0  0  0  0  0  0  0  0  0  0  0  0
  148.4600  153.5880  133.2650 C   0  0  0  0  0  0  0  0  0  0  0  0
  147.8710  154.5670  132.3460 N   0  0  0  0  0  0  0  0  0  0  0  0
  146.9090  155.5850  132.6930 C   0  0  0  0  0  0  0  0  0  0  0  0
  145.5290  155.2970  132.8840 C   0  0  0  0  0  0  0  0  0  0  0  0
  144.6190  156.3190  133.2080 C   0  0  0  0  0  0  0  0  0  0  0  0
  145.1090  157.6120  133.3440 C   0  0  0  0  0  0  0  0  0  0  0  0
  144.4450  158.7840  133.6280 C   0  0  0  0  0  0  0  0  0  0  0  0
  145.4270  159.7730  133.6300 C   0  0  0  0  0  0  0  0  0  0  0  0
  145.1740  161.1870  133.9860 C   0  0  0  0  0  0  0  0  0  0  0  0
  146.2550  162.1150  134.0990 N   0  0  0  0  0  0  0  0  0  0  0  0
  143.9950  161.5950  134.1570 O   0  0  0  0  0  0  0  0  0  0  0  0
  146.6490  159.2330  133.3560 N   0  0  0  0  0  0  0  0  0  0  0  0
  147.8950  159.9320  133.1990 C   0  0  0  0  0  0  0  0  0  0  0  0
  148.8280  159.7400  134.0230 O   0  0  0  0  0  0  0  0  0  0  0  0
  148.0600  160.8100  132.1170 O   0  0  0  0  0  0  0  0  0  0  0  0
  148.9620  160.6420  131.0140 C   0  0  0  0  0  0  0  0  0  0  0  0
  149.5980  161.9900  130.6220 C   0  0  0  0  0  0  0  0  0  0  0  0
  148.1350  160.1220  129.8280 C   0  0  0  0  0  0  0  0  0  0  0  0
  150.0500  159.6060  131.3570 C   0  0  0  0  0  0  0  0  0  0  0  0
  146.4360  157.9090  133.1820 C   0  0  0  0  0  0  0  0  0  0  0  0
  147.3610  156.9170  132.8400 C   0  0  0  0  0  0  0  0  0  0  0  0
  151.1580  150.6124  131.1697 H   0  0  0  0  0  0  0  0  0  0  0  0
  149.9091  149.5329  130.4615 H   0  0  0  0  0  0  0  0  0  0  0  0
  149.6629  151.3123  130.4615 H   0  0  0  0  0  0  0  0  0  0  0  0
  147.4571  150.4555  133.1281 H   0  0  0  0  0  0  0  0  0  0  0  0
  147.6963  151.3441  131.5855 H   0  0  0  0  0  0  0  0  0  0  0  0
  147.6188  149.5495  131.5855 H   0  0  0  0  0  0  0  0  0  0  0  0
  149.3068  151.3918  134.1855 H   0  0  0  0  0  0  0  0  0  0  0  0
  150.9404  151.3410  133.4227 H   0  0  0  0  0  0  0  0  0  0  0  0
  150.5270  153.4279  132.6775 H   0  0  0  0  0  0  0  0  0  0  0  0
  149.3303  152.6557  131.5449 H   0  0  0  0  0  0  0  0  0  0  0  0
  147.6843  152.8710  133.5719 H   0  0  0  0  0  0  0  0  0  0  0  0
  148.8579  154.1240  134.1393 H   0  0  0  0  0  0  0  0  0  0  0  0
  148.1350  154.4660  131.3380 H   0  0  0  0  0  0  0  0  0  0  0  0
  145.1696  154.2629  132.7770 H   0  0  0  0  0  0  0  0  0  0  0  0
  143.5502  156.1011  133.3497 H   0  0  0  0  0  0  0  0  0  0  0  0
  143.3685  158.9126  133.8138 H   0  0  0  0  0  0  0  0  0  0  0  0
  147.2470  161.8040  134.0160 H   0  0  0  0  0  0  0  0  0  0  0  0
  146.0620  163.1190  134.3130 H   0  0  0  0  0  0  0  0  0  0  0  0
  149.8619  162.5493  131.5317 H   0  0  0  0  0  0  0  0  0  0  0  0
  150.5053  161.8082  130.0272 H   0  0  0  0  0  0  0  0  0  0  0  0
  148.8808  162.5747  130.0272 H   0  0  0  0  0  0  0  0  0  0  0  0
  147.2600  159.5718  130.2044 H   0  0  0  0  0  0  0  0  0  0  0  0
  147.7984  160.9713  129.2153 H   0  0  0  0  0  0  0  0  0  0  0  0
  148.7546  159.4506  129.2153 H   0  0  0  0  0  0  0  0  0  0  0  0
  150.1417  159.5187  132.4497 H   0  0  0  0  0  0  0  0  0  0  0  0
  149.7731  158.6295  130.9331 H   0  0  0  0  0  0  0  0  0  0  0  0
  151.0118  159.9303  130.9331 H   0  0  0  0  0  0  0  0  0  0  0  0
  148.4210  157.1684  132.6881 H   0  0  0  0  0  0  0  0  0  0  0  0
  1  2  1  0
  2  3  1  0
  2  4  1  0
  4  5  1  0
  5  6  1  0
  6  7  1  0
  7  8  1  0
  8  9  2  0
  9 10  1  0
 10 11  2  0
 11 12  1  0
 12 13  2  0
 13 14  1  0
 14 15  1  0
 14 16  2  0
 13 17  1  0
 17 18  1  0
 18 19  2  0
 18 20  1  0
 20 21  1  0
 21 22  1  0
 21 23  1  0
 21 24  1  0
 17 25  1  0
 25 26  2  0
 26  8  1  0
 25 11  1  0
  1 27  1  0
  1 28  1  0
  1 29  1  0
  3 30  1  0
  3 31  1  0
  3 32  1  0
  4 33  1  0
  4 34  1  0
  5 35  1  0
  5 36  1  0
  6 37  1  0
  6 38  1  0
  7 39  1  0
  9 40  1  0
 10 41  1  0
 12 42  1  0
 15 43  1  0
 15 44  1  0
 22 45  1  0
 22 46  1  0
 22 47  1  0
 23 48  1  0
 23 49  1  0
 23 50  1  0
 24 51  1  0
 24 52  1  0
 24 53  1  0
 26 54  1  0
M  END
>  <UniqueID>  (36) 
36

>  <SMILES>  (36) 
CN(C)CCCNc1ccc2cc(C(N)=O)n(C(=O)OC(C)(C)C)c2c1

>  <Energy>  (36) 
85.00154754707178

>  <Genealogy>  (36) 
CN(C)CCCNc1ccc2cc(C(N)=O)n(C(=O)OC(C)(C)C)c2c1 (3D coordinates assigned)
CN(C)CCCNc1ccc2cc(C(N)=O)n(C(=O)OC(C)(C)C)c2c1 (optimized conformer: 85.00154754707178 kcal/mol)

>  <smiles>  (36) 
CN(C)CCCNc1ccc2cc(C(N)=O)n(C(=O)OC(C)(C)C)c2c1

>  <score_type>  (36) 
oracle

>  <origin>  (36) 
adg

>  <m_score__min__energy>  (36) 
-8.3100000000000005

>  <m_primary>  (36) 
energy

$$$$
36:0
     RDKit          3D

 38 40  0  0  0  0  0  0  0  0999 V2000
  143.0610  160.7180  133.3830 N   0  0  0  0  0  0  0  0  0  0  0  0
  144.4180  160.8870  133.7860 C   0  0  0  0  0  0  0  0  0  0  0  0
  144.7710  161.9730  134.3190 O   0  0  0  0  0  0  0  0  0  0  0  0
  145.4240  159.8340  133.5350 C   0  0  0  0  0  0  0  0  0  0  0  0
  146.7780  160.0990  133.3490 C   0  0  0  0  0  0  0  0  0  0  0  0
  147.3520  158.8830  133.0580 C   0  0  0  0  0  0  0  0  0  0  0  0
  148.6780  158.5620  132.7930 C   0  0  0  0  0  0  0  0  0  0  0  0
  148.9920  157.2150  132.5520 C   0  0  0  0  0  0  0  0  0  0  0  0
  147.9900  156.2140  132.5840 C   0  0  0  0  0  0  0  0  0  0  0  0
  148.3670  154.8440  132.3350 N   0  0  0  0  0  0  0  0  0  0  0  0
  148.8310  153.9040  133.3670 C   0  0  1  0  0  0  0  0  0  0  0  0
  147.7150  153.6040  134.3880 C   0  0  0  0  0  0  0  0  0  0  0  0
  146.4210  153.3980  133.7370 N   0  0  0  0  0  0  0  0  0  0  0  0
  145.2420  153.9340  134.0900 C   0  0  0  0  0  0  0  0  0  0  0  0
  144.2920  153.4880  133.1980 C   0  0  0  0  0  0  0  0  0  0  0  0
  144.8710  152.6740  132.2900 N   0  0  0  0  0  0  0  0  0  0  0  0
  146.1700  152.6420  132.6510 C   0  0  0  0  0  0  0  0  0  0  0  0
  149.3420  152.6290  132.7450 C   0  0  0  0  0  0  0  0  0  0  0  0
  149.2870  152.4740  131.4970 O   0  0  0  0  0  0  0  0  0  0  0  0
  149.9230  151.6380  133.5290 O   0  0  0  0  0  0  0  0  0  0  0  0
  146.6500  156.5830  132.8660 C   0  0  0  0  0  0  0  0  0  0  0  0
  146.3620  157.9370  133.0810 C   0  0  0  0  0  0  0  0  0  0  0  0
  145.1700  158.5040  133.3760 N   0  0  0  0  0  0  0  0  0  0  0  0
  143.9240  157.8140  133.5620 C   0  0  0  0  0  0  0  0  0  0  0  0
  143.0280  157.8710  132.6800 O   0  0  0  0  0  0  0  0  0  0  0  0
  143.6850  157.0970  134.7280 O   0  0  0  0  0  0  0  0  0  0  0  0
  142.8050  160.0440  132.6270 H   0  0  0  0  0  0  0  0  0  0  0  0
  147.2821  161.0741  133.4197 H   0  0  0  0  0  0  0  0  0  0  0  0
  149.4567  159.3386  132.7727 H   0  0  0  0  0  0  0  0  0  0  0  0
  150.0327  156.9323  132.3349 H   0  0  0  0  0  0  0  0  0  0  0  0
  148.2370  154.4860  131.3610 H   0  0  0  0  0  0  0  0  0  0  0  0
  149.6638  154.3810  133.9045 H   0  0  0  0  0  0  0  0  0  0  0  0
  147.9802  152.6950  134.9479 H   0  0  0  0  0  0  0  0  0  0  0  0
  147.6248  154.4709  135.0591 H   0  0  0  0  0  0  0  0  0  0  0  0
  145.0659  154.6093  134.9403 H   0  0  0  0  0  0  0  0  0  0  0  0
  143.2250  153.7543  133.2219 H   0  0  0  0  0  0  0  0  0  0  0  0
  146.9387  152.0631  132.1180 H   0  0  0  0  0  0  0  0  0  0  0  0
  145.8554  155.8238  132.9148 H   0  0  0  0  0  0  0  0  0  0  0  0
  1  2  1  0
  2  3  2  0
  2  4  1  0
  4  5  2  0
  5  6  1  0
  6  7  2  0
  7  8  1  0
  8  9  2  0
  9 10  1  0
 10 11  1  0
 11 12  1  0
 12 13  1  0
 13 14  1  0
 14 15  2  0
 15 16  1  0
 16 17  2  0
 11 18  1  0
 18 19  2  0
 18 20  1  0
  9 21  1  0
 21 22  2  0
 22 23  1  0
 23 24  1  0
 24 25  2  0
 24 26  1  0
 23  4  1  0
 22  6  1  0
 17 13  1  0
  1 27  1  0
  5 28  1  0
  7 29  1  0
  8 30  1  0
 10 31  1  0
 11 32  1  1
 12 33  1  0
 12 34  1  0
 14 35  1  0
 15 36  1  0
 17 37  1  0
 21 38  1  0
M  CHG  3   1  -1  20  -1  26  -1
M  END
>  <UniqueID>  (37) 
37

>  <SMILES>  (37) 
[NH-]C(=O)c1cc2ccc(N[C@@H](Cn3ccnc3)C(=O)[O-])cc2n1C(=O)[O-]

>  <Energy>  (37) 
107.6946455009686

>  <Genealogy>  (37) 
[NH-]C(=O)c1cc2ccc(NC(Cn3ccnc3)C(=O)[O-])cc2n1C(=O)[O-] (protonated)
[NH-]C(=O)c1cc2ccc(N[C@@H](Cn3ccnc3)C(=O)[O-])cc2n1C(=O)[O-] (chirality)
[NH-]C(=O)c1cc2ccc(N[C@@H](Cn3ccnc3)C(=O)[O-])cc2n1C(=O)[O-] (3D coordinates assigned)
[NH-]C(=O)c1cc2ccc(N[C@@H](Cn3ccnc3)C(=O)[O-])cc2n1C(=O)[O-] (optimized conformer: 107.6946455009686 kcal/mol)

>  <smiles>  (37) 
NC(=O)c1cc2ccc(NC(Cn3ccnc3)C(=O)O)cc2n1C(=O)O

>  <score_type>  (37) 
oracle

>  <origin>  (37) 
adg

>  <m_score__min__energy>  (37) 
-6.54

>  <m_primary>  (37) 
energy

$$$$
37:0
     RDKit          3D

 45 47  0  0  0  0  0  0  0  0999 V2000
  143.0940  156.3300  132.9950 N   0  0  0  0  0  0  0  0  0  0  0  0
  143.0790  155.2750  133.9540 C   0  0  0  0  0  0  0  0  0  0  0  0
  143.3840  155.5240  135.1500 O   0  0  0  0  0  0  0  0  0  0  0  0
  142.6670  153.9160  133.5440 C   0  0  0  0  0  0  0  0  0  0  0  0
  143.5370  152.8280  133.5010 C   0  0  0  0  0  0  0  0  0  0  0  0
  142.7990  151.7910  132.9800 C   0  0  0  0  0  0  0  0  0  0  0  0
  143.1610  150.4710  132.7320 C   0  0  0  0  0  0  0  0  0  0  0  0
  142.1830  149.6050  132.2150 C   0  0  0  0  0  0  0  0  0  0  0  0
  140.8710  150.0710  131.9450 C   0  0  0  0  0  0  0  0  0  0  0  0
  139.8150  149.1170  131.4470 C   0  0  0  0  0  0  0  0  0  0  0  0
  139.4790  149.4010  130.1340 F   0  0  0  0  0  0  0  0  0  0  0  0
  140.2690  147.8110  131.5040 F   0  0  0  0  0  0  0  0  0  0  0  0
  138.6850  149.2370  132.2360 F   0  0  0  0  0  0  0  0  0  0  0  0
  140.5360  151.4140  132.2340 C   0  0  0  0  0  0  0  0  0  0  0  0
  141.5340  152.2580  132.7330 C   0  0  0  0  0  0  0  0  0  0  0  0
  141.4360  153.5590  133.0800 N   0  0  0  0  0  0  0  0  0  0  0  0
  140.2530  154.3710  133.0060 C   0  0  0  0  0  0  0  0  0  0  0  0
  139.1170  153.8250  132.9530 O   0  0  0  0  0  0  0  0  0  0  0  0
  140.3720  155.7640  132.9760 O   0  0  0  0  0  0  0  0  0  0  0  0
  139.3190  156.6520  133.3460 C   0  0  0  0  0  0  0  0  0  0  0  0
  139.6640  157.4410  134.6250 C   0  0  0  0  0  0  0  0  0  0  0  0
  141.1210  157.4840  134.9300 N   0  0  0  0  0  0  0  0  0  0  0  0
  141.3660  157.3890  136.3920 C   0  0  0  0  0  0  0  0  0  0  0  0
  141.4610  158.7720  137.0730 C   0  0  0  0  0  0  0  0  0  0  0  0
  140.7390  159.7420  136.3450 O   0  0  0  0  0  0  0  0  0  0  0  0
  141.3600  159.9760  135.0930 C   0  0  0  0  0  0  0  0  0  0  0  0
  141.8010  158.6770  134.3770 C   0  0  0  0  0  0  0  0  0  0  0  0
  142.3530  156.4010  132.2620 H   0  0  0  0  0  0  0  0  0  0  0  0
  144.5904  152.8038  133.8168 H   0  0  0  0  0  0  0  0  0  0  0  0
  144.1822  150.1159  132.9346 H   0  0  0  0  0  0  0  0  0  0  0  0
  142.4378  148.5533  132.0173 H   0  0  0  0  0  0  0  0  0  0  0  0
  139.5141  151.7867  132.0702 H   0  0  0  0  0  0  0  0  0  0  0  0
  139.1460  157.3624  132.5242 H   0  0  0  0  0  0  0  0  0  0  0  0
  138.4179  156.0530  133.5442 H   0  0  0  0  0  0  0  0  0  0  0  0
  139.3046  158.4734  134.5031 H   0  0  0  0  0  0  0  0  0  0  0  0
  139.1764  156.9216  135.4632 H   0  0  0  0  0  0  0  0  0  0  0  0
  141.5620  156.6400  134.4940 H   0  0  0  0  0  0  0  0  0  0  0  0
  140.5395  156.8269  136.8513 H   0  0  0  0  0  0  0  0  0  0  0  0
  142.3319  156.8823  136.5341 H   0  0  0  0  0  0  0  0  0  0  0  0
  141.0465  158.7022  138.0895 H   0  0  0  0  0  0  0  0  0  0  0  0
  142.5180  159.0743  137.1093 H   0  0  0  0  0  0  0  0  0  0  0  0
  140.6486  160.5081  134.4443 H   0  0  0  0  0  0  0  0  0  0  0  0
  142.2677  160.5670  135.2846 H   0  0  0  0  0  0  0  0  0  0  0  0
  141.5586  158.7606  133.3073 H   0  0  0  0  0  0  0  0  0  0  0  0
  142.8834  158.5540  134.5298 H   0  0  0  0  0  0  0  0  0  0  0  0
  1  2  1  0
  2  3  2  0
  2  4  1  0
  4  5  2  0
  5  6  1  0
  6  7  2  0
  7  8  1  0
  8  9  2  0
  9 10  1  0
 10 11  1  0
 10 12  1  0
 10 13  1  0
  9 14  1  0
 14 15  2  0
 15 16  1  0
 16 17  1  0
 17 18  2  0
 17 19  1  0
 19 20  1  0
 20 21  1  0
 21 22  1  0
 22 23  1  0
 23 24  1  0
 24 25  1  0
 25 26  1  0
 26 27  1  0
 16  4  1  0
 27 22  1  0
 15  6  1  0
  1 28  1  0
  5 29  1  0
  7 30  1  0
  8 31  1  0
 14 32  1  0
 20 33  1  0
 20 34  1  0
 21 35  1  0
 21 36  1  0
 22 37  1  0
 23 38  1  0
 23 39  1  0
 24 40  1  0
 24 41  1  0
 26 42  1  0
 26 43  1  0
 27 44  1  0
 27 45  1  0
M  CHG  2   1  -1  22   1
M  END
>  <UniqueID>  (38) 
38

>  <SMILES>  (38) 
[NH-]C(=O)c1cc2ccc(C(F)(F)F)cc2n1C(=O)OCC[NH+]1CCOCC1

>  <Energy>  (38) 
96.56423793795467

>  <Genealogy>  (38) 
[NH-]C(=O)c1cc2ccc(C(F)(F)F)cc2n1C(=O)OCC[NH+]1CCOCC1 (protonated)
[NH-]C(=O)c1cc2ccc(C(F)(F)F)cc2n1C(=O)OCC[NH+]1CCOCC1 (3D coordinates assigned)
[NH-]C(=O)c1cc2ccc(C(F)(F)F)cc2n1C(=O)OCC[NH+]1CCOCC1 (nonaromatic ring conformer: 96.56423793795467 kcal/mol)

>  <smiles>  (38) 
NC(=O)c1cc2ccc(C(F)(F)F)cc2n1C(=O)OCCN1CCOCC1

>  <score_type>  (38) 
oracle

>  <origin>  (38) 
adg

>  <m_score__min__energy>  (38) 
-5.2599999999999998

>  <m_primary>  (38) 
energy

$$$$
38:0
     RDKit          3D

 33 34  0  0  0  0  0  0  0  0999 V2000
  142.9360  155.0550  133.0690 N   0  0  0  0  0  0  0  0  0  0  0  0
  144.0410  155.2730  133.9470 C   0  0  0  0  0  0  0  0  0  0  0  0
  144.0130  154.7870  135.1090 O   0  0  0  0  0  0  0  0  0  0  0  0
  145.1870  156.1130  133.5420 C   0  0  0  0  0  0  0  0  0  0  0  0
  146.5010  155.6570  133.5140 C   0  0  0  0  0  0  0  0  0  0  0  0
  147.2570  156.7490  133.1520 C   0  0  0  0  0  0  0  0  0  0  0  0
  148.6300  156.8590  132.9530 C   0  0  0  0  0  0  0  0  0  0  0  0
  149.1380  158.1020  132.5390 C   0  0  0  0  0  0  0  0  0  0  0  0
  148.2710  159.2030  132.3350 C   0  0  0  0  0  0  0  0  0  0  0  0
  148.8200  160.5100  131.8430 C   0  0  0  0  0  0  0  0  0  0  0  0
  149.3330  160.3460  129.9840 Br  0  0  0  0  0  0  0  0  0  0  0  0
  146.8810  159.0500  132.5330 C   0  0  0  0  0  0  0  0  0  0  0  0
  146.4040  157.8070  132.9650 C   0  0  0  0  0  0  0  0  0  0  0  0
  145.1260  157.4300  133.1960 N   0  0  0  0  0  0  0  0  0  0  0  0
  143.9480  158.2300  133.0030 C   0  0  0  0  0  0  0  0  0  0  0  0
  142.9150  157.7130  132.4990 O   0  0  0  0  0  0  0  0  0  0  0  0
  143.9560  159.5810  133.3700 O   0  0  0  0  0  0  0  0  0  0  0  0
  143.1190  160.1220  134.3900 C   0  0  0  0  0  0  0  0  0  0  0  0
  141.6460  159.8670  134.0790 C   0  0  0  0  0  0  0  0  0  0  0  0
  141.4030  160.0930  132.7180 O   0  0  0  0  0  0  0  0  0  0  0  0
  142.1560  154.4240  133.3580 H   0  0  0  0  0  0  0  0  0  0  0  0
  142.8470  155.5820  132.1730 H   0  0  0  0  0  0  0  0  0  0  0  0
  146.8595  154.6406  133.7342 H   0  0  0  0  0  0  0  0  0  0  0  0
  149.2970  155.9994  133.1148 H   0  0  0  0  0  0  0  0  0  0  0  0
  150.2187  158.2209  132.3719 H   0  0  0  0  0  0  0  0  0  0  0  0
  148.0507  161.2900  131.9423 H   0  0  0  0  0  0  0  0  0  0  0  0
  149.7023  160.7820  132.4410 H   0  0  0  0  0  0  0  0  0  0  0  0
  146.1904  159.8869  132.3522 H   0  0  0  0  0  0  0  0  0  0  0  0
  143.3711  159.6496  135.3509 H   0  0  0  0  0  0  0  0  0  0  0  0
  143.2844  161.2083  134.4406 H   0  0  0  0  0  0  0  0  0  0  0  0
  141.3954  158.8250  134.3267 H   0  0  0  0  0  0  0  0  0  0  0  0
  141.0247  160.5496  134.6774 H   0  0  0  0  0  0  0  0  0  0  0  0
  142.1280  159.6250  132.2280 H   0  0  0  0  0  0  0  0  0  0  0  0
  1  2  1  0
  2  3  2  0
  2  4  1  0
  4  5  2  0
  5  6  1  0
  6  7  2  0
  7  8  1  0
  8  9  2  0
  9 10  1  0
 10 11  1  0
  9 12  1  0
 12 13  2  0
 13 14  1  0
 14 15  1  0
 15 16  2  0
 15 17  1  0
 17 18  1  0
 18 19  1  0
 19 20  1  0
 14  4  1  0
 13  6  1  0
  1 21  1  0
  1 22  1  0
  5 23  1  0
  7 24  1  0
  8 25  1  0
 10 26  1  0
 10 27  1  0
 12 28  1  0
 18 29  1  0
 18 30  1  0
 19 31  1  0
 19 32  1  0
 20 33  1  0
M  END
>  <UniqueID>  (39) 
39

>  <SMILES>  (39) 
NC(=O)c1cc2ccc(CBr)cc2n1C(=O)OCCO

>  <Energy>  (39) 
67.25901707355975

>  <Genealogy>  (39) 
NC(=O)c1cc2ccc(CBr)cc2n1C(=O)OCCO (3D coordinates assigned)
NC(=O)c1cc2ccc(CBr)cc2n1C(=O)OCCO (optimized conformer: 67.25901707355975 kcal/mol)

>  <smiles>  (39) 
NC(=O)c1cc2ccc(CBr)cc2n1C(=O)OCCO

>  <score_type>  (39) 
oracle

>  <origin>  (39) 
adg

>  <m_score__min__energy>  (39) 
-6.8799999999999999

>  <m_primary>  (39) 
energy

$$$$
39:0
     RDKit          3D

 35 36  0  0  0  0  0  0  0  0999 V2000
  142.4130  157.6660  134.6670 C   0  0  0  0  0  0  0  0  0  0  0  0
  143.5970  158.3790  134.0890 C   0  0  0  0  0  0  0  0  0  0  0  0
  143.5420  159.7760  133.8560 C   0  0  0  0  0  0  0  0  0  0  0  0
  144.6650  160.4630  133.3600 C   0  0  0  0  0  0  0  0  0  0  0  0
  145.8230  159.7300  133.1150 C   0  0  0  0  0  0  0  0  0  0  0  0
  147.0580  160.1380  132.6600 C   0  0  0  0  0  0  0  0  0  0  0  0
  147.8420  158.9830  132.6320 C   0  0  0  0  0  0  0  0  0  0  0  0
  149.2400  158.9430  132.1600 C   0  0  0  0  0  0  0  0  0  0  0  0
  149.8830  157.6890  131.9410 N   0  0  0  0  0  0  0  0  0  0  0  0
  149.8810  160.0080  131.9620 O   0  0  0  0  0  0  0  0  0  0  0  0
  147.1160  157.9110  133.0480 N   0  0  0  0  0  0  0  0  0  0  0  0
  147.5620  156.5630  133.2320 C   0  0  0  0  0  0  0  0  0  0  0  0
  147.6800  155.8030  132.2330 O   0  0  0  0  0  0  0  0  0  0  0  0
  147.7510  156.0170  134.6130 C   0  0  0  0  0  0  0  0  0  0  0  0
  146.8490  154.8390  134.8050 C   0  0  0  0  0  0  0  0  0  0  0  0
  145.8160  154.7170  134.0910 O   0  0  0  0  0  0  0  0  0  0  0  0
  147.1990  153.8250  135.7550 N   0  0  0  0  0  0  0  0  0  0  0  0
  147.9580  154.0960  136.9730 C   0  0  0  0  0  0  0  0  0  0  0  0
  147.3630  153.3880  138.1540 C   0  0  0  0  0  0  0  0  0  0  0  0
  146.9030  152.2220  138.0180 O   0  0  0  0  0  0  0  0  0  0  0  0
  147.3340  153.9920  139.4060 O   0  0  0  0  0  0  0  0  0  0  0  0
  145.8880  158.3800  133.3440 C   0  0  0  0  0  0  0  0  0  0  0  0
  144.7950  157.6710  133.8460 C   0  0  0  0  0  0  0  0  0  0  0  0
  142.4660  157.6979  135.7653 H   0  0  0  0  0  0  0  0  0  0  0  0
  141.4885  158.1577  134.3301 H   0  0  0  0  0  0  0  0  0  0  0  0
  142.4151  156.6189  134.3301 H   0  0  0  0  0  0  0  0  0  0  0  0
  142.6135  160.3276  134.0647 H   0  0  0  0  0  0  0  0  0  0  0  0
  144.6292  161.5461  133.1715 H   0  0  0  0  0  0  0  0  0  0  0  0
  147.3617  161.1571  132.3786 H   0  0  0  0  0  0  0  0  0  0  0  0
  149.3770  156.9010  131.4820 H   0  0  0  0  0  0  0  0  0  0  0  0
  148.7974  155.7043  134.7448 H   0  0  0  0  0  0  0  0  0  0  0  0
  147.5072  156.7931  135.3534 H   0  0  0  0  0  0  0  0  0  0  0  0
  148.9937  153.7527  136.8338 H   0  0  0  0  0  0  0  0  0  0  0  0
  147.9298  155.1785  137.1664 H   0  0  0  0  0  0  0  0  0  0  0  0
  144.8648  156.5917  134.0466 H   0  0  0  0  0  0  0  0  0  0  0  0
  1  2  1  0
  2  3  2  0
  3  4  1  0
  4  5  2  0
  5  6  1  0
  6  7  2  0
  7  8  1  0
  8  9  1  0
  8 10  2  0
  7 11  1  0
 11 12  1  0
 12 13  2  0
 12 14  1  0
 14 15  1  0
 15 16  2  0
 15 17  1  0
 17 18  1  0
 18 19  1  0
 19 20  2  0
 19 21  1  0
 11 22  1  0
 22 23  2  0
 23  2  1  0
 22  5  1  0
  1 24  1  0
  1 25  1  0
  1 26  1  0
  3 27  1  0
  4 28  1  0
  6 29  1  0
  9 30  1  0
 14 31  1  0
 14 32  1  0
 18 33  1  0
 18 34  1  0
 23 35  1  0
M  CHG  3   9  -1  17  -1  21  -1
M  END
>  <UniqueID>  (40) 
40

>  <SMILES>  (40) 
Cc1ccc2cc(C([NH-])=O)n(C(=O)CC(=O)[N-]CC(=O)[O-])c2c1

>  <Energy>  (40) 
69.33474671617196

>  <Genealogy>  (40) 
Cc1ccc2cc(C([NH-])=O)n(C(=O)CC(=O)[N-]CC(=O)[O-])c2c1 (protonated)
Cc1ccc2cc(C([NH-])=O)n(C(=O)CC(=O)[N-]CC(=O)[O-])c2c1 (3D coordinates assigned)
Cc1ccc2cc(C([NH-])=O)n(C(=O)CC(=O)[N-]CC(=O)[O-])c2c1 (optimized conformer: 69.33474671617196 kcal/mol)

>  <smiles>  (40) 
Cc1ccc2cc(C(N)=O)n(C(=O)CC(=O)NCC(=O)O)c2c1

>  <score_type>  (40) 
oracle

>  <origin>  (40) 
adg

>  <m_score__min__energy>  (40) 
-6.6399999999999997

>  <m_primary>  (40) 
energy

$$$$
40:0
     RDKit          3D

 34 35  0  0  0  0  0  0  0  0999 V2000
  144.4460  160.2540  133.7180 C   0  0  0  0  0  0  0  0  0  0  0  0
  143.4750  159.3180  133.1630 N   0  0  0  0  0  0  0  0  0  0  0  0
  143.5420  157.8930  133.3610 C   0  0  0  0  0  0  0  0  0  0  0  0
  144.7750  157.2360  133.6280 C   0  0  0  0  0  0  0  0  0  0  0  0
  144.8190  155.8470  133.8300 C   0  0  0  0  0  0  0  0  0  0  0  0
  143.6250  155.1380  133.7510 C   0  0  0  0  0  0  0  0  0  0  0  0
  143.3800  153.7960  133.9330 C   0  0  0  0  0  0  0  0  0  0  0  0
  142.0080  153.6430  133.7500 C   0  0  0  0  0  0  0  0  0  0  0  0
  141.3250  152.3320  133.7760 C   0  0  0  0  0  0  0  0  0  0  0  0
  140.6800  151.8190  132.6150 N   0  0  0  0  0  0  0  0  0  0  0  0
  141.3560  151.6340  134.8240 O   0  0  0  0  0  0  0  0  0  0  0  0
  141.4250  154.8430  133.4720 N   0  0  0  0  0  0  0  0  0  0  0  0
  140.0240  155.1240  133.3240 C   0  0  0  0  0  0  0  0  0  0  0  0
  139.2940  154.3460  132.6510 O   0  0  0  0  0  0  0  0  0  0  0  0
  139.4820  156.2720  133.9080 O   0  0  0  0  0  0  0  0  0  0  0  0
  139.0980  157.4160  133.1500 C   0  0  0  0  0  0  0  0  0  0  0  0
  139.4910  158.5930  133.8170 O   0  0  0  0  0  0  0  0  0  0  0  0
  140.0700  159.7130  132.6660 P   0  0  0  0  0  0  0  0  0  0  0  0
  140.8690  158.9700  131.6200 O   0  0  0  0  0  0  0  0  0  0  0  0
  138.7800  160.5060  131.9100 O   0  0  0  0  0  0  0  0  0  0  0  0
  141.0710  160.8510  133.4160 O   0  0  0  0  0  0  0  0  0  0  0  0
  142.4300  155.7490  133.4750 C   0  0  0  0  0  0  0  0  0  0  0  0
  142.3540  157.1340  133.2890 C   0  0  0  0  0  0  0  0  0  0  0  0
  144.4060  160.2154  134.8166 H   0  0  0  0  0  0  0  0  0  0  0  0
  145.4555  159.9797  133.3780 H   0  0  0  0  0  0  0  0  0  0  0  0
  144.2089  161.2729  133.3780 H   0  0  0  0  0  0  0  0  0  0  0  0
  142.6930  159.7120  132.5940 H   0  0  0  0  0  0  0  0  0  0  0  0
  145.7044  157.8224  133.6768 H   0  0  0  0  0  0  0  0  0  0  0  0
  145.7689  155.3353  134.0442 H   0  0  0  0  0  0  0  0  0  0  0  0
  144.1124  153.0109  134.1722 H   0  0  0  0  0  0  0  0  0  0  0  0
  140.0930  152.4360  132.0100 H   0  0  0  0  0  0  0  0  0  0  0  0
  139.5826  157.3780  132.1632 H   0  0  0  0  0  0  0  0  0  0  0  0
  138.0045  157.4181  133.0302 H   0  0  0  0  0  0  0  0  0  0  0  0
  141.3880  157.6213  133.0907 H   0  0  0  0  0  0  0  0  0  0  0  0
  1  2  1  0
  2  3  1  0
  3  4  2  0
  4  5  1  0
  5  6  2  0
  6  7  1  0
  7  8  2  0
  8  9  1  0
  9 10  1  0
  9 11  2  0
  8 12  1  0
 12 13  1  0
 13 14  2  0
 13 15  1  0
 15 16  1  0
 16 17  1  0
 17 18  1  0
 18 19  2  0
 18 20  1  0
 18 21  1  0
 12 22  1  0
 22 23  2  0
 23  3  1  0
 22  6  1  0
  1 24  1  0
  1 25  1  0
  1 26  1  0
  2 27  1  0
  4 28  1  0
  5 29  1  0
  7 30  1  0
 10 31  1  0
 16 32  1  0
 16 33  1  0
 23 34  1  0
M  CHG  3  10  -1  20  -1  21  -1
M  END
>  <UniqueID>  (41) 
41

>  <SMILES>  (41) 
CNc1ccc2cc(C([NH-])=O)n(C(=O)OCOP(=O)([O-])[O-])c2c1

>  <Energy>  (41) 
69.74696258499603

>  <Genealogy>  (41) 
CNc1ccc2cc(C([NH-])=O)n(C(=O)OCOP(=O)([O-])[O-])c2c1 (protonated)
CNc1ccc2cc(C([NH-])=O)n(C(=O)OCOP(=O)([O-])[O-])c2c1 (3D coordinates assigned)
CNc1ccc2cc(C([NH-])=O)n(C(=O)OCOP(=O)([O-])[O-])c2c1 (optimized conformer: 69.74696258499603 kcal/mol)

>  <smiles>  (41) 
CNc1ccc2cc(C(N)=O)n(C(=O)OCOP(=O)(O)O)c2c1

>  <score_type>  (41) 
oracle

>  <origin>  (41) 
adg

>  <m_score__min__energy>  (41) 
-6.5300000000000002

>  <m_primary>  (41) 
energy

$$$$
41:0
     RDKit          3D

 46 48  0  0  0  0  0  0  0  0999 V2000
  138.8050  147.4430  129.9930 C   0  0  0  0  0  0  0  0  0  0  0  0
  139.4640  148.4710  130.8640 C   0  0  0  0  0  0  0  0  0  0  0  0
  140.6270  148.1500  131.5810 C   0  0  0  0  0  0  0  0  0  0  0  0
  141.2190  149.0950  132.4250 C   0  0  0  0  0  0  0  0  0  0  0  0
  140.6500  150.3680  132.5650 C   0  0  0  0  0  0  0  0  0  0  0  0
  141.3690  151.5520  133.6550 S   0  0  0  0  0  0  0  0  0  0  0  0
  141.0710  151.1860  135.0820 O   0  0  0  0  0  0  0  0  0  0  0  0
  142.8590  151.5740  133.4630 O   0  0  0  0  0  0  0  0  0  0  0  0
  140.7240  153.0930  133.3220 O   0  0  0  0  0  0  0  0  0  0  0  0
  141.5280  154.1950  133.3840 C   0  0  0  0  0  0  0  0  0  0  0  0
  142.2540  155.1560  133.4350 C   0  0  0  0  0  0  0  0  0  0  0  0
  143.1370  156.2890  133.4920 C   0  0  0  0  0  0  0  0  0  0  0  0
  144.5280  156.1030  133.3160 C   0  0  0  0  0  0  0  0  0  0  0  0
  145.4030  157.2010  133.3560 C   0  0  0  0  0  0  0  0  0  0  0  0
  144.8570  158.4630  133.5810 C   0  0  0  0  0  0  0  0  0  0  0  0
  145.4670  159.6940  133.6420 C   0  0  0  0  0  0  0  0  0  0  0  0
  144.4400  160.6050  133.8800 C   0  0  0  0  0  0  0  0  0  0  0  0
  144.6690  162.0480  134.1040 C   0  0  0  0  0  0  0  0  0  0  0  0
  143.9430  163.0290  133.3690 N   0  0  0  0  0  0  0  0  0  0  0  0
  145.4830  162.4200  134.9910 O   0  0  0  0  0  0  0  0  0  0  0  0
  143.2380  159.9640  133.9510 N   0  0  0  0  0  0  0  0  0  0  0  0
  141.9350  160.5460  134.1010 C   0  0  0  0  0  0  0  0  0  0  0  0
  141.6410  161.5980  133.4700 O   0  0  0  0  0  0  0  0  0  0  0  0
  140.9890  159.9270  134.9260 O   0  0  0  0  0  0  0  0  0  0  0  0
  141.3000  159.3900  136.2080 C   0  0  0  0  0  0  0  0  0  0  0  0
  140.4610  158.1840  136.4850 C   0  0  0  0  0  0  0  0  0  0  0  0
  140.9250  157.2370  137.1740 O   0  0  0  0  0  0  0  0  0  0  0  0
  139.1560  158.1170  136.0130 O   0  0  0  0  0  0  0  0  0  0  0  0
  143.5100  158.6530  133.7710 C   0  0  0  0  0  0  0  0  0  0  0  0
  142.6150  157.5780  133.7180 C   0  0  0  0  0  0  0  0  0  0  0  0
  139.4770  150.6830  131.8680 C   0  0  0  0  0  0  0  0  0  0  0  0
  138.8830  149.7380  131.0270 C   0  0  0  0  0  0  0  0  0  0  0  0
  138.3189  146.6847  130.6244 H   0  0  0  0  0  0  0  0  0  0  0  0
  138.0503  147.9299  129.3579 H   0  0  0  0  0  0  0  0  0  0  0  0
  139.5625  146.9605  129.3579 H   0  0  0  0  0  0  0  0  0  0  0  0
  141.0749  147.1506  131.4786 H   0  0  0  0  0  0  0  0  0  0  0  0
  142.1333  148.8385  132.9802 H   0  0  0  0  0  0  0  0  0  0  0  0
  144.9271  155.0920  133.1467 H   0  0  0  0  0  0  0  0  0  0  0  0
  146.4858  157.0687  133.2141 H   0  0  0  0  0  0  0  0  0  0  0  0
  146.5388  159.9131  133.5272 H   0  0  0  0  0  0  0  0  0  0  0  0
  142.9790  162.8330  133.0190 H   0  0  0  0  0  0  0  0  0  0  0  0
  142.3625  159.1062  136.2341 H   0  0  0  0  0  0  0  0  0  0  0  0
  141.0935  160.1521  136.9739 H   0  0  0  0  0  0  0  0  0  0  0  0
  141.5342  157.7352  133.8492 H   0  0  0  0  0  0  0  0  0  0  0  0
  139.0216  151.6777  131.9828 H   0  0  0  0  0  0  0  0  0  0  0  0
  137.9560  149.9884  130.4904 H   0  0  0  0  0  0  0  0  0  0  0  0
  1  2  1  0
  2  3  2  0
  3  4  1  0
  4  5  2  0
  5  6  1  0
  6  7  2  0
  6  8  2  0
  6  9  1  0
  9 10  1  0
 10 11  3  0
 11 12  1  0
 12 13  2  0
 13 14  1  0
 14 15  2  0
 15 16  1  0
 16 17  2  0
 17 18  1  0
 18 19  1  0
 18 20  2  0
 17 21  1  0
 21 22  1  0
 22 23  2  0
 22 24  1  0
 24 25  1  0
 25 26  1  0
 26 27  2  0
 26 28  1  0
 21 29  1  0
 29 30  2  0
  5 31  1  0
 31 32  2  0
 32  2  1  0
 30 12  1  0
 29 15  1  0
  1 33  1  0
  1 34  1  0
  1 35  1  0
  3 36  1  0
  4 37  1  0
 13 38  1  0
 14 39  1  0
 16 40  1  0
 19 41  1  0
 25 42  1  0
 25 43  1  0
 30 44  1  0
 31 45  1  0
 32 46  1  0
M  CHG  2  19  -1  28  -1
M  END
>  <UniqueID>  (42) 
42

>  <SMILES>  (42) 
Cc1ccc(S(=O)(=O)OC#Cc2ccc3cc(C([NH-])=O)n(C(=O)OCC(=O)[O-])c3c2)cc1

>  <Energy>  (42) 
79.19446278115105

>  <Genealogy>  (42) 
Cc1ccc(S(=O)(=O)OC#Cc2ccc3cc(C([NH-])=O)n(C(=O)OCC(=O)[O-])c3c2)cc1 (protonated)
Cc1ccc(S(=O)(=O)OC#Cc2ccc3cc(C([NH-])=O)n(C(=O)OCC(=O)[O-])c3c2)cc1 (3D coordinates assigned)
Cc1ccc(S(=O)(=O)OC#Cc2ccc3cc(C([NH-])=O)n(C(=O)OCC(=O)[O-])c3c2)cc1 (optimized conformer: 79.19446278115105 kcal/mol)

>  <smiles>  (42) 
Cc1ccc(S(=O)(=O)OC#Cc2ccc3cc(C(N)=O)n(C(=O)OCC(=O)O)c3c2)cc1

>  <score_type>  (42) 
oracle

>  <origin>  (42) 
adg

>  <m_score__min__energy>  (42) 
-10.279999999999999

>  <m_primary>  (42) 
energy

$$$$
42:0
     RDKit          3D

 39 40  0  0  0  0  0  0  0  0999 V2000
  141.0120  158.7850  133.4020 C   0  0  0  0  0  0  0  0  0  0  0  0
  140.5720  158.0690  132.2690 O   0  0  0  0  0  0  0  0  0  0  0  0
  139.4930  157.2150  132.6070 C   0  0  0  0  0  0  0  0  0  0  0  0
  139.6290  156.7530  134.0540 C   0  0  0  0  0  0  0  0  0  0  0  0
  140.4970  155.6280  134.1200 O   0  0  0  0  0  0  0  0  0  0  0  0
  140.3570  154.5100  133.2940 C   0  0  0  0  0  0  0  0  0  0  0  0
  139.2640  154.2900  132.7040 O   0  0  0  0  0  0  0  0  0  0  0  0
  141.4570  153.5990  133.1360 N   0  0  0  0  0  0  0  0  0  0  0  0
  142.7830  153.8560  133.3300 C   0  0  0  0  0  0  0  0  0  0  0  0
  143.3810  155.1810  133.5920 C   0  0  0  0  0  0  0  0  0  0  0  0
  142.8610  156.3340  132.9370 N   0  0  0  0  0  0  0  0  0  0  0  0
  144.3220  155.3120  134.4200 O   0  0  0  0  0  0  0  0  0  0  0  0
  143.5350  152.6940  133.1710 C   0  0  0  0  0  0  0  0  0  0  0  0
  142.6240  151.7090  132.8640 C   0  0  0  0  0  0  0  0  0  0  0  0
  142.8230  150.3550  132.6090 C   0  0  0  0  0  0  0  0  0  0  0  0
  141.6950  149.5620  132.3440 C   0  0  0  0  0  0  0  0  0  0  0  0
  140.3960  150.1290  132.3540 C   0  0  0  0  0  0  0  0  0  0  0  0
  139.1980  149.2750  132.0460 C   0  0  0  0  0  0  0  0  0  0  0  0
  139.3070  148.6270  130.3500 P   0  0  2  0  0  0  0  0  0  0  0  0
  138.3130  149.3470  129.4660 O   0  0  0  0  0  0  0  0  0  0  0  0
  138.9510  146.9740  130.3620 O   0  0  0  0  0  0  0  0  0  0  0  0
  140.8710  148.8630  129.7520 O   0  0  0  0  0  0  0  0  0  0  0  0
  140.2340  151.5090  132.6070 C   0  0  0  0  0  0  0  0  0  0  0  0
  141.3780  152.2800  132.8500 C   0  0  0  0  0  0  0  0  0  0  0  0
  140.6903  158.2614  134.3143 H   0  0  0  0  0  0  0  0  0  0  0  0
  142.1096  158.8557  133.3876 H   0  0  0  0  0  0  0  0  0  0  0  0
  140.5792  159.7962  133.3876 H   0  0  0  0  0  0  0  0  0  0  0  0
  138.5451  157.7598  132.4858 H   0  0  0  0  0  0  0  0  0  0  0  0
  139.5052  156.3371  131.9443 H   0  0  0  0  0  0  0  0  0  0  0  0
  140.0441  157.5709  134.6612 H   0  0  0  0  0  0  0  0  0  0  0  0
  138.6384  156.4712  134.4404 H   0  0  0  0  0  0  0  0  0  0  0  0
  141.8790  156.3550  132.5830 H   0  0  0  0  0  0  0  0  0  0  0  0
  144.6253  152.5866  133.2698 H   0  0  0  0  0  0  0  0  0  0  0  0
  143.8332  149.9196  132.6149 H   0  0  0  0  0  0  0  0  0  0  0  0
  141.8206  148.4910  132.1267 H   0  0  0  0  0  0  0  0  0  0  0  0
  139.1595  148.4343  132.7543 H   0  0  0  0  0  0  0  0  0  0  0  0
  138.2883  149.8864  132.1386 H   0  0  0  0  0  0  0  0  0  0  0  0
  141.1220  147.9940  129.3490 H   0  0  0  0  0  0  0  0  0  0  0  0
  139.2340  151.9672  132.6131 H   0  0  0  0  0  0  0  0  0  0  0  0
  1  2  1  0
  2  3  1  0
  3  4  1  0
  4  5  1  0
  5  6  1  0
  6  7  2  0
  6  8  1  0
  8  9  1  0
  9 10  1  0
 10 11  1  0
 10 12  2  0
  9 13  2  0
 13 14  1  0
 14 15  2  0
 15 16  1  0
 16 17  2  0
 17 18  1  0
 18 19  1  0
 19 20  2  0
 19 21  1  1
 19 22  1  0
 17 23  1  0
 23 24  2  0
 24  8  1  0
 24 14  1  0
  1 25  1  0
  1 26  1  0
  1 27  1  0
  3 28  1  0
  3 29  1  0
  4 30  1  0
  4 31  1  0
 11 32  1  0
 13 33  1  0
 15 34  1  0
 16 35  1  0
 18 36  1  0
 18 37  1  0
 22 38  1  0
 23 39  1  0
M  CHG  2  11  -1  21  -1
M  END
>  <UniqueID>  (43) 
43

>  <SMILES>  (43) 
COCCOC(=O)n1c(C([NH-])=O)cc2ccc(C[P@](=O)([O-])O)cc21

>  <Energy>  (43) 
69.40872575967097

>  <Genealogy>  (43) 
COCCOC(=O)n1c(C([NH-])=O)cc2ccc(CP(=O)([O-])O)cc21 (protonated)
COCCOC(=O)n1c(C([NH-])=O)cc2ccc(C[P@](=O)([O-])O)cc21 (chirality)
COCCOC(=O)n1c(C([NH-])=O)cc2ccc(C[P@](=O)([O-])O)cc21 (3D coordinates assigned)
COCCOC(=O)n1c(C([NH-])=O)cc2ccc(C[P@](=O)([O-])O)cc21 (optimized conformer: 69.40872575967097 kcal/mol)

>  <smiles>  (43) 
COCCOC(=O)n1c(C(N)=O)cc2ccc(CP(=O)(O)O)cc21

>  <score_type>  (43) 
oracle

>  <origin>  (43) 
adg

>  <m_score__min__energy>  (43) 
-6.3099999999999996

>  <m_primary>  (43) 
energy

$$$$
43:0
     RDKit          3D

 46 48  0  0  0  0  0  0  0  0999 V2000
  141.0590  159.6120  134.4990 N   0  0  0  0  0  0  0  0  0  0  0  0
  140.6180  158.5520  135.3430 C   0  0  0  0  0  0  0  0  0  0  0  0
  139.8120  158.8020  136.2780 O   0  0  0  0  0  0  0  0  0  0  0  0
  141.1290  157.1810  135.1310 C   0  0  0  0  0  0  0  0  0  0  0  0
  142.0630  156.5680  135.9650 C   0  0  0  0  0  0  0  0  0  0  0  0
  142.2200  155.2950  135.4650 C   0  0  0  0  0  0  0  0  0  0  0  0
  143.0410  154.2550  135.8940 C   0  0  0  0  0  0  0  0  0  0  0  0
  143.0220  153.0540  135.1620 C   0  0  0  0  0  0  0  0  0  0  0  0
  142.1960  152.9260  134.0220 C   0  0  0  0  0  0  0  0  0  0  0  0
  142.1920  151.7030  133.2680 C   0  0  0  0  0  0  0  0  0  0  0  0
  142.1780  150.6860  132.6200 C   0  0  0  0  0  0  0  0  0  0  0  0
  142.1480  149.4410  131.8370 C   0  0  0  0  0  0  0  0  0  0  0  0
  140.8690  148.7100  131.9730 N   0  0  0  0  0  0  0  0  0  0  0  0
  139.8370  149.4380  132.7420 C   0  0  0  0  0  0  0  0  0  0  0  0
  138.9900  150.3890  131.8610 C   0  0  0  0  0  0  0  0  0  0  0  0
  139.0970  150.1360  130.4720 O   0  0  0  0  0  0  0  0  0  0  0  0
  139.0660  148.7490  130.2280 C   0  0  0  0  0  0  0  0  0  0  0  0
  140.3730  148.1060  130.7130 C   0  0  0  0  0  0  0  0  0  0  0  0
  141.3780  153.9980  133.6120 C   0  0  0  0  0  0  0  0  0  0  0  0
  141.4010  155.1720  134.3710 C   0  0  0  0  0  0  0  0  0  0  0  0
  140.7250  156.3200  134.1550 N   0  0  0  0  0  0  0  0  0  0  0  0
  139.8170  156.5780  133.0740 C   0  0  0  0  0  0  0  0  0  0  0  0
  139.1240  155.6370  132.5980 O   0  0  0  0  0  0  0  0  0  0  0  0
  139.6880  157.9040  132.5450 N   0  0  0  0  0  0  0  0  0  0  0  0
  138.6840  158.2290  131.5330 C   0  0  0  0  0  0  0  0  0  0  0  0
  138.6530  159.7020  131.2760 C   0  0  0  0  0  0  0  0  0  0  0  0
  139.4850  160.4600  131.8390 O   0  0  0  0  0  0  0  0  0  0  0  0
  137.6700  160.2440  130.4580 O   0  0  0  0  0  0  0  0  0  0  0  0
  140.5370  159.8590  133.6290 H   0  0  0  0  0  0  0  0  0  0  0  0
  142.5676  157.0082  136.8377 H   0  0  0  0  0  0  0  0  0  0  0  0
  143.6848  154.3693  136.7785 H   0  0  0  0  0  0  0  0  0  0  0  0
  143.6530  152.2103  135.4782 H   0  0  0  0  0  0  0  0  0  0  0  0
  142.3002  149.6890  130.7762 H   0  0  0  0  0  0  0  0  0  0  0  0
  142.9455  148.7882  132.2214 H   0  0  0  0  0  0  0  0  0  0  0  0
  139.1661  148.7039  133.2120 H   0  0  0  0  0  0  0  0  0  0  0  0
  140.3560  150.0550  133.4903 H   0  0  0  0  0  0  0  0  0  0  0  0
  137.9346  150.2815  132.1518 H   0  0  0  0  0  0  0  0  0  0  0  0
  139.3746  151.4057  132.0296 H   0  0  0  0  0  0  0  0  0  0  0  0
  138.2174  148.3023  130.7669 H   0  0  0  0  0  0  0  0  0  0  0  0
  138.9536  148.5728  129.1480 H   0  0  0  0  0  0  0  0  0  0  0  0
  140.1973  147.0332  130.8812 H   0  0  0  0  0  0  0  0  0  0  0  0
  141.1359  148.2741  129.9386 H   0  0  0  0  0  0  0  0  0  0  0  0
  140.7396  153.9134  132.7202 H   0  0  0  0  0  0  0  0  0  0  0  0
  140.3380  158.6450  132.8930 H   0  0  0  0  0  0  0  0  0  0  0  0
  138.9300  157.7041  130.5982 H   0  0  0  0  0  0  0  0  0  0  0  0
  137.6963  157.9121  131.8989 H   0  0  0  0  0  0  0  0  0  0  0  0
  1  2  1  0
  2  3  2  0
  2  4  1  0
  4  5  2  0
  5  6  1  0
  6  7  2  0
  7  8  1  0
  8  9  2  0
  9 10  1  0
 10 11  3  0
 11 12  1  0
 12 13  1  0
 13 14  1  0
 14 15  1  0
 15 16  1  0
 16 17  1  0
 17 18  1  0
  9 19  1  0
 19 20  2  0
 20 21  1  0
 21 22  1  0
 22 23  2  0
 22 24  1  0
 24 25  1  0
 25 26  1  0
 26 27  2  0
 26 28  1  0
 21  4  1  0
 20  6  1  0
 18 13  1  0
  1 29  1  0
  5 30  1  0
  7 31  1  0
  8 32  1  0
 12 33  1  0
 12 34  1  0
 14 35  1  0
 14 36  1  0
 15 37  1  0
 15 38  1  0
 17 39  1  0
 17 40  1  0
 18 41  1  0
 18 42  1  0
 19 43  1  0
 24 44  1  0
 25 45  1  0
 25 46  1  0
M  CHG  2   1  -1  28  -1
M  END
>  <UniqueID>  (44) 
44

>  <SMILES>  (44) 
[NH-]C(=O)c1cc2ccc(C#CCN3CCOCC3)cc2n1C(=O)NCC(=O)[O-]

>  <Energy>  (44) 
92.29947609752888

>  <Genealogy>  (44) 
[NH-]C(=O)c1cc2ccc(C#CCN3CCOCC3)cc2n1C(=O)NCC(=O)[O-] (protonated)
[NH-]C(=O)c1cc2ccc(C#CCN3CCOCC3)cc2n1C(=O)NCC(=O)[O-] (3D coordinates assigned)
[NH-]C(=O)c1cc2ccc(C#CCN3CCOCC3)cc2n1C(=O)NCC(=O)[O-] (nonaromatic ring conformer: 92.29947609752888 kcal/mol)

>  <smiles>  (44) 
NC(=O)c1cc2ccc(C#CCN3CCOCC3)cc2n1C(=O)NCC(=O)O

>  <score_type>  (44) 
oracle

>  <origin>  (44) 
adg

>  <m_score__min__energy>  (44) 
-8.4900000000000002

>  <m_primary>  (44) 
energy

$$$$
44:0
     RDKit          3D

 34 36  0  0  0  0  0  0  0  0999 V2000
  149.6550  157.1550  132.2290 N   0  0  0  0  0  0  0  0  0  0  0  0
  149.2110  158.5080  132.2810 C   0  0  0  0  0  0  0  0  0  0  0  0
  149.9650  159.4220  131.8530 O   0  0  0  0  0  0  0  0  0  0  0  0
  147.8590  158.8460  132.7720 C   0  0  0  0  0  0  0  0  0  0  0  0
  147.4250  160.1530  132.9760 C   0  0  0  0  0  0  0  0  0  0  0  0
  146.1040  160.0450  133.3470 C   0  0  0  0  0  0  0  0  0  0  0  0
  145.1890  161.0330  133.6960 C   0  0  0  0  0  0  0  0  0  0  0  0
  143.8990  160.6320  134.0800 C   0  0  0  0  0  0  0  0  0  0  0  0
  143.5420  159.2590  134.0970 C   0  0  0  0  0  0  0  0  0  0  0  0
  142.1740  158.8370  134.5710 C   0  0  0  0  0  0  0  0  0  0  0  0
  141.2280  159.2310  133.6430 F   0  0  0  0  0  0  0  0  0  0  0  0
  141.8790  159.4200  135.7910 F   0  0  0  0  0  0  0  0  0  0  0  0
  142.1120  157.4620  134.7210 F   0  0  0  0  0  0  0  0  0  0  0  0
  144.5080  158.2830  133.7590 C   0  0  0  0  0  0  0  0  0  0  0  0
  145.7800  158.7130  133.3630 C   0  0  0  0  0  0  0  0  0  0  0  0
  146.8500  157.9620  133.0140 N   0  0  0  0  0  0  0  0  0  0  0  0
  146.9250  156.5270  133.0140 C   0  0  0  0  0  0  0  0  0  0  0  0
  146.9920  155.9040  131.9190 O   0  0  0  0  0  0  0  0  0  0  0  0
  146.9080  155.8360  134.2320 O   0  0  0  0  0  0  0  0  0  0  0  0
  147.2750  154.4960  134.4060 C   0  0  0  0  0  0  0  0  0  0  0  0
  146.7910  153.8010  135.3390 O   0  0  0  0  0  0  0  0  0  0  0  0
  148.2410  153.8920  133.4860 C   0  0  0  0  0  0  0  0  0  0  0  0
  148.2300  152.5890  133.0260 C   0  0  0  0  0  0  0  0  0  0  0  0
  149.3350  152.5160  132.2010 C   0  0  0  0  0  0  0  0  0  0  0  0
  149.9410  153.7180  132.1930 N   0  0  0  0  0  0  0  0  0  0  0  0
  149.2710  154.5190  132.9660 O   0  0  0  0  0  0  0  0  0  0  0  0
  149.0160  156.3910  131.9190 H   0  0  0  0  0  0  0  0  0  0  0  0
  148.0130  161.0760  132.8644 H   0  0  0  0  0  0  0  0  0  0  0  0
  145.4676  162.0969  133.6719 H   0  0  0  0  0  0  0  0  0  0  0  0
  143.1574  161.3906  134.3707 H   0  0  0  0  0  0  0  0  0  0  0  0
  144.2655  157.2111  133.8062 H   0  0  0  0  0  0  0  0  0  0  0  0
  147.5078  151.7936  133.2624 H   0  0  0  0  0  0  0  0  0  0  0  0
  149.6643  151.6261  131.6445 H   0  0  0  0  0  0  0  0  0  0  0  0
  150.8020  153.9770  131.6640 H   0  0  0  0  0  0  0  0  0  0  0  0
  1  2  1  0
  2  3  2  0
  2  4  1  0
  4  5  2  0
  5  6  1  0
  6  7  2  0
  7  8  1  0
  8  9  2  0
  9 10  1  0
 10 11  1  0
 10 12  1  0
 10 13  1  0
  9 14  1  0
 14 15  2  0
 15 16  1  0
 16 17  1  0
 17 18  2  0
 17 19  1  0
 19 20  1  0
 20 21  2  0
 20 22  1  0
 22 23  2  0
 23 24  1  0
 24 25  2  0
 25 26  1  0
 16  4  1  0
 26 22  1  0
 15  6  1  0
  1 27  1  0
  5 28  1  0
  7 29  1  0
  8 30  1  0
 14 31  1  0
 23 32  1  0
 24 33  1  0
 25 34  1  0
M  CHG  2   1  -1  25   1
M  END
>  <UniqueID>  (45) 
45

>  <SMILES>  (45) 
[NH-]C(=O)c1cc2ccc(C(F)(F)F)cc2n1C(=O)OC(=O)c1cc[nH+]o1

>  <Energy>  (45) 
106.46946419023236

>  <Genealogy>  (45) 
[NH-]C(=O)c1cc2ccc(C(F)(F)F)cc2n1C(=O)OC(=O)c1cc[nH+]o1 (protonated)
[NH-]C(=O)c1cc2ccc(C(F)(F)F)cc2n1C(=O)OC(=O)c1cc[nH+]o1 (3D coordinates assigned)
[NH-]C(=O)c1cc2ccc(C(F)(F)F)cc2n1C(=O)OC(=O)c1cc[nH+]o1 (optimized conformer: 106.46946419023236 kcal/mol)

>  <smiles>  (45) 
NC(=O)c1cc2ccc(C(F)(F)F)cc2n1C(=O)OC(=O)c1ccno1

>  <score_type>  (45) 
oracle

>  <origin>  (45) 
adg

>  <m_score__min__energy>  (45) 
-6.6200000000000001

>  <m_primary>  (45) 
energy

$$$$
45:0
     RDKit          3D

 29 30  0  0  0  0  0  0  0  0999 V2000
  149.9322  160.5852  129.9005 H   0  0  0  0  0  0  0  0  0  0  0  0
  149.2440  161.2400  130.4550 C   0  0  0  0  0  0  0  0  0  0  0  0
  149.3020  162.5840  130.2910 F   0  0  0  0  0  0  0  0  0  0  0  0
  148.3730  160.7300  131.2690 N   0  0  0  0  0  0  0  0  0  0  0  0
  148.2390  159.3740  131.5140 O   0  0  0  0  0  0  0  0  0  0  0  0
  148.0930  158.8170  132.7920 C   0  0  0  0  0  0  0  0  0  0  0  0
  148.8080  159.2180  133.7490 O   0  0  0  0  0  0  0  0  0  0  0  0
  147.0850  157.8180  133.0230 N   0  0  0  0  0  0  0  0  0  0  0  0
  145.7880  158.0140  133.3930 C   0  0  0  0  0  0  0  0  0  0  0  0
  145.0990  159.3170  133.4710 C   0  0  0  0  0  0  0  0  0  0  0  0
  143.9820  159.3910  134.0500 O   0  0  0  0  0  0  0  0  0  0  0  0
  145.6440  160.4810  132.8500 N   0  0  0  0  0  0  0  0  0  0  0  0
  145.1610  161.4030  132.9500 H   0  0  0  0  0  0  0  0  0  0  0  0
  146.4740  160.4190  132.2220 H   0  0  0  0  0  0  0  0  0  0  0  0
  145.1590  156.7990  133.6460 C   0  0  0  0  0  0  0  0  0  0  0  0
  144.1193  156.6403  133.9683 H   0  0  0  0  0  0  0  0  0  0  0  0
  146.1150  155.8380  133.4070 C   0  0  0  0  0  0  0  0  0  0  0  0
  146.0350  154.4520  133.5110 C   0  0  0  0  0  0  0  0  0  0  0  0
  145.0954  153.9581  133.7994 H   0  0  0  0  0  0  0  0  0  0  0  0
  147.1920  153.7040  133.2360 C   0  0  0  0  0  0  0  0  0  0  0  0
  147.1571  152.6059  133.2914 H   0  0  0  0  0  0  0  0  0  0  0  0
  148.4030  154.3510  132.8880 C   0  0  0  0  0  0  0  0  0  0  0  0
  149.6240  153.5400  132.5740 C   0  0  0  0  0  0  0  0  0  0  0  0
  150.1036  153.2214  133.5113 H   0  0  0  0  0  0  0  0  0  0  0  0
  149.3352  152.6536  131.9902 H   0  0  0  0  0  0  0  0  0  0  0  0
  150.3291  154.1499  131.9902 H   0  0  0  0  0  0  0  0  0  0  0  0
  148.4430  155.7590  132.7770 C   0  0  0  0  0  0  0  0  0  0  0  0
  149.3720  156.2767  132.4959 H   0  0  0  0  0  0  0  0  0  0  0  0
  147.2700  156.4780  133.0340 C   0  0  0  0  0  0  0  0  0  0  0  0
  1  2  1  0
  2  3  1  0
  2  4  2  0
  4  5  1  0
  5  6  1  0
  6  7  2  0
  6  8  1  0
  8  9  1  0
  9 10  1  0
 10 11  2  0
 10 12  1  0
 12 13  1  0
 12 14  1  0
  9 15  2  0
 15 16  1  0
 15 17  1  0
 17 18  2  0
 18 19  1  0
 18 20  1  0
 20 21  1  0
 20 22  2  0
 22 23  1  0
 23 24  1  0
 23 25  1  0
 23 26  1  0
 22 27  1  0
 27 28  1  0
 27 29  2  0
 29  8  1  0
 29 17  1  0
M  END
>  <UniqueID>  (46) 
46

>  <SMILES>  (46) 
Cc1ccc2cc(C(N)=O)n(C(=O)O/N=C/F)c2c1

>  <Energy>  (46) 
73.2447381101907

>  <Genealogy>  (46) 
Cc1ccc2cc(C(N)=O)n(C(=O)O/N=C/F)c2c1 (cis-trans isomerization)
Cc1ccc2cc(C(N)=O)n(C(=O)O/N=C/F)c2c1 (3D coordinates assigned)
Cc1ccc2cc(C(N)=O)n(C(=O)O/N=C/F)c2c1 (optimized conformer: 73.2447381101907 kcal/mol)

>  <smiles>  (46) 
Cc1ccc2cc(C(N)=O)n(C(=O)ON=CF)c2c1

>  <score_type>  (46) 
oracle

>  <origin>  (46) 
adg

>  <m_score__min__energy>  (46) 
-6.1600000000000001

>  <m_primary>  (46) 
energy

$$$$
46:0
     RDKit          3D

 43 45  0  0  0  0  0  0  0  0999 V2000
  142.7180  158.9050  134.4470 N   0  0  0  0  0  0  0  0  0  0  0  0
  141.6290  158.8970  135.3680 C   0  0  0  0  0  0  0  0  0  0  0  0
  140.7750  159.8230  135.3200 O   0  0  0  0  0  0  0  0  0  0  0  0
  141.5010  157.8000  136.3490 C   0  0  0  0  0  0  0  0  0  0  0  0
  141.4430  157.9950  137.7280 C   0  0  0  0  0  0  0  0  0  0  0  0
  141.3720  156.7320  138.2720 C   0  0  0  0  0  0  0  0  0  0  0  0
  141.2890  156.3320  139.6020 C   0  0  0  0  0  0  0  0  0  0  0  0
  141.2060  154.9550  139.8720 C   0  0  0  0  0  0  0  0  0  0  0  0
  141.1790  154.0080  138.8150 C   0  0  0  0  0  0  0  0  0  0  0  0
  141.1290  152.5320  139.1180 C   0  0  0  0  0  0  0  0  0  0  0  0
  140.3020  151.8770  138.2220 F   0  0  0  0  0  0  0  0  0  0  0  0
  140.6410  152.3480  140.3980 F   0  0  0  0  0  0  0  0  0  0  0  0
  142.3910  151.9720  139.0300 F   0  0  0  0  0  0  0  0  0  0  0  0
  141.2860  154.4550  137.4770 C   0  0  0  0  0  0  0  0  0  0  0  0
  141.3870  155.8300  137.2410 C   0  0  0  0  0  0  0  0  0  0  0  0
  141.4720  156.4710  136.0550 N   0  0  0  0  0  0  0  0  0  0  0  0
  141.4630  155.8600  134.7550 C   0  0  0  0  0  0  0  0  0  0  0  0
  142.3830  155.0570  134.4420 O   0  0  0  0  0  0  0  0  0  0  0  0
  140.3860  156.1580  133.7930 C   0  0  0  0  0  0  0  0  0  0  0  0
  139.6390  155.2230  133.3940 O   0  0  0  0  0  0  0  0  0  0  0  0
  140.1870  157.4930  133.3030 N   0  0  0  0  0  0  0  0  0  0  0  0
  139.1080  157.7860  132.3500 C   0  0  0  0  0  0  0  0  0  0  0  0
  139.0570  159.2360  131.7930 C   0  0  0  0  0  0  0  0  0  0  0  0
  139.8080  160.3240  132.5940 C   0  0  0  0  0  0  0  0  0  0  0  0
  141.2510  160.0870  132.6110 N   0  0  0  0  0  0  0  0  0  0  0  0
  137.7610  159.7160  131.1420 C   0  0  0  0  0  0  0  0  0  0  0  0
  139.0010  159.4560  130.2840 C   0  0  0  0  0  0  0  0  0  0  0  0
  142.5720  158.6680  133.4400 H   0  0  0  0  0  0  0  0  0  0  0  0
  141.4520  158.9538  138.2670 H   0  0  0  0  0  0  0  0  0  0  0  0
  141.2884  157.0706  140.4172 H   0  0  0  0  0  0  0  0  0  0  0  0
  141.1614  154.6073  140.9146 H   0  0  0  0  0  0  0  0  0  0  0  0
  141.2897  153.7385  136.6424 H   0  0  0  0  0  0  0  0  0  0  0  0
  140.8120  158.2380  133.6740 H   0  0  0  0  0  0  0  0  0  0  0  0
  139.2205  157.1024  131.4956 H   0  0  0  0  0  0  0  0  0  0  0  0
  138.1735  157.6557  132.9155 H   0  0  0  0  0  0  0  0  0  0  0  0
  139.6135  161.3036  132.1329 H   0  0  0  0  0  0  0  0  0  0  0  0
  139.4447  160.2964  133.6319 H   0  0  0  0  0  0  0  0  0  0  0  0
  141.6590  160.5190  133.4720 H   0  0  0  0  0  0  0  0  0  0  0  0
  141.4280  159.0560  132.6510 H   0  0  0  0  0  0  0  0  0  0  0  0
  136.8950  159.0408  131.0766 H   0  0  0  0  0  0  0  0  0  0  0  0
  137.0836  160.5694  131.2928 H   0  0  0  0  0  0  0  0  0  0  0  0
  139.0265  158.5940  129.6011 H   0  0  0  0  0  0  0  0  0  0  0  0
  139.5847  160.0454  129.5616 H   0  0  0  0  0  0  0  0  0  0  0  0
  1  2  1  0
  2  3  2  0
  2  4  1  0
  4  5  2  0
  5  6  1  0
  6  7  2  0
  7  8  1  0
  8  9  2  0
  9 10  1  0
 10 11  1  0
 10 12  1  0
 10 13  1  0
  9 14  1  0
 14 15  2  0
 15 16  1  0
 16 17  1  0
 17 18  2  0
 17 19  1  0
 19 20  2  0
 19 21  1  0
 21 22  1  0
 22 23  1  0
 23 24  1  0
 24 25  1  0
 23 26  1  0
 26 27  1  0
 16  4  1  0
 27 23  1  0
 15  6  1  0
  1 28  1  0
  5 29  1  0
  7 30  1  0
  8 31  1  0
 14 32  1  0
 21 33  1  0
 22 34  1  0
 22 35  1  0
 24 36  1  0
 24 37  1  0
 25 38  1  0
 25 39  1  0
 26 40  1  0
 26 41  1  0
 27 42  1  0
 27 43  1  0
M  CHG  1   1  -1
M  END
>  <UniqueID>  (47) 
47

>  <SMILES>  (47) 
[NH-]C(=O)c1cc2ccc(C(F)(F)F)cc2n1C(=O)C(=O)NCC1(CN)CC1

>  <Energy>  (47) 
351.60018668342127

>  <Genealogy>  (47) 
[NH-]C(=O)c1cc2ccc(C(F)(F)F)cc2n1C(=O)C(=O)NCC1(CN)CC1 (protonated)
[NH-]C(=O)c1cc2ccc(C(F)(F)F)cc2n1C(=O)C(=O)NCC1(CN)CC1 (3D coordinates assigned)
[NH-]C(=O)c1cc2ccc(C(F)(F)F)cc2n1C(=O)C(=O)NCC1(CN)CC1 (nonaromatic ring conformer: 351.60018668342127 kcal/mol)

>  <smiles>  (47) 
NCC1(CNC(=O)C(=O)n2c(C(N)=O)cc3ccc(C(F)(F)F)cc32)CC1

>  <score_type>  (47) 
oracle

>  <origin>  (47) 
adg

>  <m_score__min__energy>  (47) 
-6.5599999999999996

>  <m_primary>  (47) 
energy

$$$$
47:0
     RDKit          3D

 31 33  0  0  0  0  0  0  0  0999 V2000
  142.9210  161.2130  133.7310 N   0  0  0  0  0  0  0  0  0  0  0  0
  144.3190  161.4780  133.7980 C   0  0  0  0  0  0  0  0  0  0  0  0
  144.7160  162.6660  133.9420 O   0  0  0  0  0  0  0  0  0  0  0  0
  145.3080  160.3910  133.6420 C   0  0  0  0  0  0  0  0  0  0  0  0
  146.6800  160.6110  133.5460 C   0  0  0  0  0  0  0  0  0  0  0  0
  147.2340  159.3710  133.3230 C   0  0  0  0  0  0  0  0  0  0  0  0
  148.5650  159.0030  133.1620 C   0  0  0  0  0  0  0  0  0  0  0  0
  148.8530  157.6410  132.9780 C   0  0  0  0  0  0  0  0  0  0  0  0
  147.8170  156.6730  132.9640 C   0  0  0  0  0  0  0  0  0  0  0  0
  148.1590  155.2450  132.7790 C   0  0  0  0  0  0  0  0  0  0  0  0
  147.3480  154.1430  132.9670 C   0  0  0  0  0  0  0  0  0  0  0  0
  148.0530  153.0310  132.6870 N   0  0  0  0  0  0  0  0  0  0  0  0
  149.2680  153.5010  132.3390 C   0  0  0  0  0  0  0  0  0  0  0  0
  149.3350  154.8110  132.3920 O   0  0  0  0  0  0  0  0  0  0  0  0
  146.4740  157.0890  133.1330 C   0  0  0  0  0  0  0  0  0  0  0  0
  146.2150  158.4550  133.2960 C   0  0  0  0  0  0  0  0  0  0  0  0
  145.0250  159.0660  133.4920 N   0  0  0  0  0  0  0  0  0  0  0  0
  143.7460  158.4240  133.6230 C   0  0  0  0  0  0  0  0  0  0  0  0
  143.2310  157.8380  132.6310 O   0  0  0  0  0  0  0  0  0  0  0  0
  143.0870  158.4340  134.8560 O   0  0  0  0  0  0  0  0  0  0  0  0
  141.6720  158.5140  134.9680 C   0  0  0  0  0  0  0  0  0  0  0  0
  141.2440  158.9460  136.6390 Cl  0  0  0  0  0  0  0  0  0  0  0  0
  142.5580  160.2340  133.7360 H   0  0  0  0  0  0  0  0  0  0  0  0
  147.2086  161.5719  133.6305 H   0  0  0  0  0  0  0  0  0  0  0  0
  149.3674  159.7553  133.1783 H   0  0  0  0  0  0  0  0  0  0  0  0
  149.8966  157.3207  132.8429 H   0  0  0  0  0  0  0  0  0  0  0  0
  146.2976  154.1697  133.2924 H   0  0  0  0  0  0  0  0  0  0  0  0
  150.1100  152.8578  132.0434 H   0  0  0  0  0  0  0  0  0  0  0  0
  145.6537  156.3561  133.1361 H   0  0  0  0  0  0  0  0  0  0  0  0
  141.2909  159.2828  134.2797 H   0  0  0  0  0  0  0  0  0  0  0  0
  141.2244  157.5429  134.7101 H   0  0  0  0  0  0  0  0  0  0  0  0
  1  2  1  0
  2  3  2  0
  2  4  1  0
  4  5  2  0
  5  6  1  0
  6  7  2  0
  7  8  1  0
  8  9  2  0
  9 10  1  0
 10 11  2  0
 11 12  1  0
 12 13  2  0
 13 14  1  0
  9 15  1  0
 15 16  2  0
 16 17  1  0
 17 18  1  0
 18 19  2  0
 18 20  1  0
 20 21  1  0
 21 22  1  0
 17  4  1  0
 16  6  1  0
 14 10  1  0
  1 23  1  0
  5 24  1  0
  7 25  1  0
  8 26  1  0
 11 27  1  0
 13 28  1  0
 15 29  1  0
 21 30  1  0
 21 31  1  0
M  CHG  1   1  -1
M  END
>  <UniqueID>  (48) 
48

>  <SMILES>  (48) 
[NH-]C(=O)c1cc2ccc(-c3cnco3)cc2n1C(=O)OCCl

>  <Energy>  (48) 
100.98325163262793

>  <Genealogy>  (48) 
[NH-]C(=O)c1cc2ccc(-c3cnco3)cc2n1C(=O)OCCl (protonated)
[NH-]C(=O)c1cc2ccc(-c3cnco3)cc2n1C(=O)OCCl (3D coordinates assigned)
[NH-]C(=O)c1cc2ccc(-c3cnco3)cc2n1C(=O)OCCl (optimized conformer: 100.98325163262793 kcal/mol)

>  <smiles>  (48) 
NC(=O)c1cc2ccc(-c3cnco3)cc2n1C(=O)OCCl

>  <score_type>  (48) 
oracle

>  <origin>  (48) 
adg

>  <m_score__min__energy>  (48) 
-6.4500000000000002

>  <m_primary>  (48) 
energy

$$$$
48:0
     RDKit          3D

 32 33  0  0  0  0  0  0  0  0999 V2000
  143.3210  160.9140  133.7420 N   0  0  0  0  0  0  0  0  0  0  0  0
  144.7280  161.1470  133.8310 C   0  0  0  0  0  0  0  0  0  0  0  0
  145.1400  162.2870  134.1720 O   0  0  0  0  0  0  0  0  0  0  0  0
  145.6940  160.0790  133.4930 C   0  0  0  0  0  0  0  0  0  0  0  0
  147.0340  160.3100  133.1880 C   0  0  0  0  0  0  0  0  0  0  0  0
  147.5920  159.0620  133.0300 C   0  0  0  0  0  0  0  0  0  0  0  0
  148.8970  158.7010  132.7040 C   0  0  0  0  0  0  0  0  0  0  0  0
  149.1880  157.3330  132.5750 C   0  0  0  0  0  0  0  0  0  0  0  0
  148.1770  156.3580  132.7660 C   0  0  0  0  0  0  0  0  0  0  0  0
  148.4880  154.8960  132.6110 C   0  0  0  0  0  0  0  0  0  0  0  0
  149.8150  154.7370  132.2540 F   0  0  0  0  0  0  0  0  0  0  0  0
  148.2560  154.2410  133.8050 F   0  0  0  0  0  0  0  0  0  0  0  0
  146.8650  156.7630  133.0940 C   0  0  0  0  0  0  0  0  0  0  0  0
  146.6070  158.1320  133.2350 C   0  0  0  0  0  0  0  0  0  0  0  0
  145.4350  158.7410  133.5220 N   0  0  0  0  0  0  0  0  0  0  0  0
  144.1640  158.1000  133.7240 C   0  0  0  0  0  0  0  0  0  0  0  0
  143.9570  157.4310  134.7720 O   0  0  0  0  0  0  0  0  0  0  0  0
  143.1650  158.2190  132.7500 O   0  0  0  0  0  0  0  0  0  0  0  0
  141.8020  157.8710  132.9760 C   0  0  0  0  0  0  0  0  0  0  0  0
  141.0030  159.1050  134.0480 P   0  0  0  0  0  0  0  0  0  0  0  0
  141.8420  159.3080  135.2890 O   0  0  0  0  0  0  0  0  0  0  0  0
  139.4610  158.5750  134.4970 O   0  0  0  0  0  0  0  0  0  0  0  0
  140.8710  160.5700  133.2150 O   0  0  0  0  0  0  0  0  0  0  0  0
  142.6480  161.6880  133.9420 H   0  0  0  0  0  0  0  0  0  0  0  0
  142.9400  159.9690  133.5190 H   0  0  0  0  0  0  0  0  0  0  0  0
  147.5384  161.2830  133.0936 H   0  0  0  0  0  0  0  0  0  0  0  0
  149.6754  159.4633  132.5523 H   0  0  0  0  0  0  0  0  0  0  0  0
  150.2105  157.0151  132.3233 H   0  0  0  0  0  0  0  0  0  0  0  0
  147.8426  154.4721  131.8275 H   0  0  0  0  0  0  0  0  0  0  0  0
  146.0650  156.0213  133.2353 H   0  0  0  0  0  0  0  0  0  0  0  0
  141.2733  157.8312  132.0122 H   0  0  0  0  0  0  0  0  0  0  0  0
  141.7612  156.8889  133.4697 H   0  0  0  0  0  0  0  0  0  0  0  0
  1  2  1  0
  2  3  2  0
  2  4  1  0
  4  5  2  0
  5  6  1  0
  6  7  2  0
  7  8  1  0
  8  9  2  0
  9 10  1  0
 10 11  1  0
 10 12  1  0
  9 13  1  0
 13 14  2  0
 14 15  1  0
 15 16  1  0
 16 17  2  0
 16 18  1  0
 18 19  1  0
 19 20  1  0
 20 21  2  0
 20 22  1  0
 20 23  1  0
 15  4  1  0
 14  6  1  0
  1 24  1  0
  1 25  1  0
  5 26  1  0
  7 27  1  0
  8 28  1  0
 10 29  1  0
 13 30  1  0
 19 31  1  0
 19 32  1  0
M  CHG  2  22  -1  23  -1
M  END
>  <UniqueID>  (49) 
49

>  <SMILES>  (49) 
NC(=O)c1cc2ccc(C(F)F)cc2n1C(=O)OCP(=O)([O-])[O-]

>  <Energy>  (49) 
65.54756396040408

>  <Genealogy>  (49) 
NC(=O)c1cc2ccc(C(F)F)cc2n1C(=O)OCP(=O)([O-])[O-] (protonated)
NC(=O)c1cc2ccc(C(F)F)cc2n1C(=O)OCP(=O)([O-])[O-] (3D coordinates assigned)
NC(=O)c1cc2ccc(C(F)F)cc2n1C(=O)OCP(=O)([O-])[O-] (optimized conformer: 65.54756396040408 kcal/mol)

>  <smiles>  (49) 
NC(=O)c1cc2ccc(C(F)F)cc2n1C(=O)OCP(=O)(O)O

>  <score_type>  (49) 
oracle

>  <origin>  (49) 
adg

>  <m_score__min__energy>  (49) 
-5.9699999999999998

>  <m_primary>  (49) 
energy

$$$$
49:0
     RDKit          3D

 29 30  0  0  0  0  0  0  0  0999 V2000
  149.5820  162.1720  130.2510 C   0  0  0  0  0  0  0  0  0  0  0  0
  149.2830  160.8590  130.9120 C   0  0  0  0  0  0  0  0  0  0  0  0
  150.2300  159.8070  130.8610 C   0  0  0  0  0  0  0  0  0  0  0  0
  149.9700  158.5810  131.4950 C   0  0  0  0  0  0  0  0  0  0  0  0
  148.7710  158.4450  132.1870 C   0  0  0  0  0  0  0  0  0  0  0  0
  148.2590  157.3610  132.8630 C   0  0  0  0  0  0  0  0  0  0  0  0
  147.0270  157.7840  133.3540 C   0  0  0  0  0  0  0  0  0  0  0  0
  146.1590  156.9410  134.2000 C   0  0  0  0  0  0  0  0  0  0  0  0
  144.7630  156.8070  133.9270 N   0  0  0  0  0  0  0  0  0  0  0  0
  146.6470  156.3710  135.2130 O   0  0  0  0  0  0  0  0  0  0  0  0
  146.7780  159.0720  132.9890 N   0  0  0  0  0  0  0  0  0  0  0  0
  145.5660  159.8160  133.2010 C   0  0  0  0  0  0  0  0  0  0  0  0
  145.6120  160.9590  133.7340 O   0  0  0  0  0  0  0  0  0  0  0  0
  144.3400  159.2660  132.8150 O   0  0  0  0  0  0  0  0  0  0  0  0
  142.9490  159.3210  133.8210 P   0  0  0  0  0  0  0  0  0  0  0  0
  143.2690  160.1030  135.0740 O   0  0  0  0  0  0  0  0  0  0  0  0
  141.6830  160.0800  132.9950 O   0  0  0  0  0  0  0  0  0  0  0  0
  142.4880  157.7500  134.2410 O   0  0  0  0  0  0  0  0  0  0  0  0
  147.8570  159.4650  132.2760 C   0  0  0  0  0  0  0  0  0  0  0  0
  148.0810  160.6910  131.6360 C   0  0  0  0  0  0  0  0  0  0  0  0
  149.7565  162.9385  131.0204 H   0  0  0  0  0  0  0  0  0  0  0  0
  150.4801  162.0707  129.6239 H   0  0  0  0  0  0  0  0  0  0  0  0
  148.7286  162.4696  129.6239 H   0  0  0  0  0  0  0  0  0  0  0  0
  151.1770  159.9514  130.3203 H   0  0  0  0  0  0  0  0  0  0  0  0
  150.6928  157.7532  131.4458 H   0  0  0  0  0  0  0  0  0  0  0  0
  148.7239  156.3720  132.9885 H   0  0  0  0  0  0  0  0  0  0  0  0
  144.2980  157.3930  133.2010 H   0  0  0  0  0  0  0  0  0  0  0  0
  144.1740  156.1720  134.5110 H   0  0  0  0  0  0  0  0  0  0  0  0
  147.3403  161.5020  131.6955 H   0  0  0  0  0  0  0  0  0  0  0  0
  1  2  1  0
  2  3  2  0
  3  4  1  0
  4  5  2  0
  5  6  1  0
  6  7  2  0
  7  8  1  0
  8  9  1  0
  8 10  2  0
  7 11  1  0
 11 12  1  0
 12 13  2  0
 12 14  1  0
 14 15  1  0
 15 16  2  0
 15 17  1  0
 15 18  1  0
 11 19  1  0
 19 20  2  0
 20  2  1  0
 19  5  1  0
  1 21  1  0
  1 22  1  0
  1 23  1  0
  3 24  1  0
  4 25  1  0
  6 26  1  0
  9 27  1  0
  9 28  1  0
 20 29  1  0
M  CHG  2  17  -1  18  -1
M  END
>  <UniqueID>  (50) 
50

>  <SMILES>  (50) 
Cc1ccc2cc(C(N)=O)n(C(=O)OP(=O)([O-])[O-])c2c1

>  <Energy>  (50) 
65.08203672459796

>  <Genealogy>  (50) 
Cc1ccc2cc(C(N)=O)n(C(=O)OP(=O)([O-])[O-])c2c1 (protonated)
Cc1ccc2cc(C(N)=O)n(C(=O)OP(=O)([O-])[O-])c2c1 (3D coordinates assigned)
Cc1ccc2cc(C(N)=O)n(C(=O)OP(=O)([O-])[O-])c2c1 (optimized conformer: 65.08203672459796 kcal/mol)

>  <smiles>  (50) 
Cc1ccc2cc(C(N)=O)n(C(=O)OP(=O)(O)O)c2c1

>  <score_type>  (50) 
oracle

>  <origin>  (50) 
adg

>  <m_score__min__energy>  (50) 
-6.4199999999999999

>  <m_primary>  (50) 
energy

$$$$
50:0
     RDKit          3D

 43 44  0  0  0  0  0  0  0  0999 V2000
  147.3890  160.1200  133.2930 C   0  0  0  0  0  0  0  0  0  0  0  0
  145.9120  159.9350  133.4790 C   0  0  0  0  0  0  0  0  0  0  0  0
  145.0850  161.0540  133.7430 C   0  0  0  0  0  0  0  0  0  0  0  0
  143.6970  160.8970  133.8960 C   0  0  0  0  0  0  0  0  0  0  0  0
  143.1660  159.6180  133.7580 C   0  0  0  0  0  0  0  0  0  0  0  0
  141.8660  159.1810  133.8780 C   0  0  0  0  0  0  0  0  0  0  0  0
  141.9150  157.8080  133.6440 C   0  0  0  0  0  0  0  0  0  0  0  0
  140.7140  156.9490  133.5940 C   0  0  0  0  0  0  0  0  0  0  0  0
  140.7980  155.5960  133.1520 N   0  0  0  0  0  0  0  0  0  0  0  0
  139.5900  157.4300  133.8990 O   0  0  0  0  0  0  0  0  0  0  0  0
  143.1960  157.4100  133.3960 N   0  0  0  0  0  0  0  0  0  0  0  0
  143.6760  156.0710  133.2070 C   0  0  0  0  0  0  0  0  0  0  0  0
  143.7170  155.5750  132.0480 O   0  0  0  0  0  0  0  0  0  0  0  0
  144.1150  155.3290  134.3110 O   0  0  0  0  0  0  0  0  0  0  0  0
  143.3540  155.1780  135.5070 C   0  0  0  0  0  0  0  0  0  0  0  0
  143.1460  153.6930  135.8240 C   0  0  0  0  0  0  0  0  0  0  0  0
  142.1090  153.0230  134.9010 C   0  0  0  0  0  0  0  0  0  0  0  0
  142.3980  153.2440  133.4550 N   0  0  0  0  0  0  0  0  0  0  0  0
  141.3230  152.6960  132.6070 C   0  0  0  0  0  0  0  0  0  0  0  0
  143.6820  152.6270  133.0740 C   0  0  0  0  0  0  0  0  0  0  0  0
  143.9490  158.5300  133.4680 C   0  0  0  0  0  0  0  0  0  0  0  0
  145.3360  158.6540  133.3290 C   0  0  0  0  0  0  0  0  0  0  0  0
  147.8776  160.1812  134.2766 H   0  0  0  0  0  0  0  0  0  0  0  0
  147.7979  159.2660  132.7330 H   0  0  0  0  0  0  0  0  0  0  0  0
  147.5746  161.0484  132.7330 H   0  0  0  0  0  0  0  0  0  0  0  0
  145.5332  162.0549  133.8290 H   0  0  0  0  0  0  0  0  0  0  0  0
  143.0501  161.7585  134.1180 H   0  0  0  0  0  0  0  0  0  0  0  0
  140.9775  159.7868  134.1094 H   0  0  0  0  0  0  0  0  0  0  0  0
  141.6200  155.2600  132.6040 H   0  0  0  0  0  0  0  0  0  0  0  0
  143.8904  155.6549  136.3406 H   0  0  0  0  0  0  0  0  0  0  0  0
  142.3722  155.6540  135.3677 H   0  0  0  0  0  0  0  0  0  0  0  0
  144.1075  153.1713  135.7088 H   0  0  0  0  0  0  0  0  0  0  0  0
  142.7647  153.6251  136.8536 H   0  0  0  0  0  0  0  0  0  0  0  0
  142.1092  151.9409  135.0985 H   0  0  0  0  0  0  0  0  0  0  0  0
  141.1301  153.4758  135.1172 H   0  0  0  0  0  0  0  0  0  0  0  0
  142.4800  154.2670  133.2460 H   0  0  0  0  0  0  0  0  0  0  0  0
  140.5245  152.2889  133.2447 H   0  0  0  0  0  0  0  0  0  0  0  0
  140.9135  153.4953  131.9719 H   0  0  0  0  0  0  0  0  0  0  0  0
  141.7293  151.8950  131.9719 H   0  0  0  0  0  0  0  0  0  0  0  0
  144.2428  152.3575  133.9812 H   0  0  0  0  0  0  0  0  0  0  0  0
  143.4915  151.7221  132.4783 H   0  0  0  0  0  0  0  0  0  0  0  0
  144.2695  153.3411  132.4783 H   0  0  0  0  0  0  0  0  0  0  0  0
  145.9616  157.7765  133.1086 H   0  0  0  0  0  0  0  0  0  0  0  0
  1  2  1  0
  2  3  2  0
  3  4  1  0
  4  5  2  0
  5  6  1  0
  6  7  2  0
  7  8  1  0
  8  9  1  0
  8 10  2  0
  7 11  1  0
 11 12  1  0
 12 13  2  0
 12 14  1  0
 14 15  1  0
 15 16  1  0
 16 17  1  0
 17 18  1  0
 18 19  1  0
 18 20  1  0
 11 21  1  0
 21 22  2  0
 22  2  1  0
 21  5  1  0
  1 23  1  0
  1 24  1  0
  1 25  1  0
  3 26  1  0
  4 27  1  0
  6 28  1  0
  9 29  1  0
 15 30  1  0
 15 31  1  0
 16 32  1  0
 16 33  1  0
 17 34  1  0
 17 35  1  0
 18 36  1  0
 19 37  1  0
 19 38  1  0
 19 39  1  0
 20 40  1  0
 20 41  1  0
 20 42  1  0
 22 43  1  0
M  CHG  2   9  -1  18   1
M  END
>  <UniqueID>  (51) 
51

>  <SMILES>  (51) 
Cc1ccc2cc(C([NH-])=O)n(C(=O)OCCC[NH+](C)C)c2c1

>  <Energy>  (51) 
80.12945341762854

>  <Genealogy>  (51) 
Cc1ccc2cc(C([NH-])=O)n(C(=O)OCCC[NH+](C)C)c2c1 (protonated)
Cc1ccc2cc(C([NH-])=O)n(C(=O)OCCC[NH+](C)C)c2c1 (3D coordinates assigned)
Cc1ccc2cc(C([NH-])=O)n(C(=O)OCCC[NH+](C)C)c2c1 (optimized conformer: 80.12945341762854 kcal/mol)

>  <smiles>  (51) 
Cc1ccc2cc(C(N)=O)n(C(=O)OCCCN(C)C)c2c1

>  <score_type>  (51) 
oracle

>  <origin>  (51) 
adg

>  <m_score__min__energy>  (51) 
-4.79

>  <m_primary>  (51) 
energy

$$$$
51:0
     RDKit          3D

 32 33  0  0  0  0  0  0  0  0999 V2000
  148.2400  152.9850  133.9950 N   0  0  0  0  0  0  0  0  0  0  0  0
  148.7280  153.9730  133.0920 C   0  0  0  0  0  0  0  0  0  0  0  0
  149.7060  153.6990  132.3470 O   0  0  0  0  0  0  0  0  0  0  0  0
  148.1400  155.3290  133.0590 C   0  0  0  0  0  0  0  0  0  0  0  0
  148.8350  156.4550  132.6210 C   0  0  0  0  0  0  0  0  0  0  0  0
  147.9850  157.5160  132.8390 C   0  0  0  0  0  0  0  0  0  0  0  0
  148.1590  158.8720  132.5770 C   0  0  0  0  0  0  0  0  0  0  0  0
  147.0970  159.7420  132.8770 C   0  0  0  0  0  0  0  0  0  0  0  0
  145.8940  159.2450  133.4360 C   0  0  0  0  0  0  0  0  0  0  0  0
  144.7500  160.1780  133.7060 C   0  0  0  0  0  0  0  0  0  0  0  0
  145.2410  161.3930  134.1470 F   0  0  0  0  0  0  0  0  0  0  0  0
  145.7480  157.8610  133.6750 C   0  0  0  0  0  0  0  0  0  0  0  0
  146.8280  157.0200  133.3820 C   0  0  0  0  0  0  0  0  0  0  0  0
  146.9050  155.6790  133.5170 N   0  0  0  0  0  0  0  0  0  0  0  0
  145.8590  154.8120  133.9810 C   0  0  0  0  0  0  0  0  0  0  0  0
  145.0000  154.3710  133.1680 O   0  0  0  0  0  0  0  0  0  0  0  0
  145.7910  154.4730  135.3360 O   0  0  0  0  0  0  0  0  0  0  0  0
  146.9290  154.4810  136.1970 C   0  0  0  0  0  0  0  0  0  0  0  0
  147.1630  153.1970  136.7330 O   0  0  0  0  0  0  0  0  0  0  0  0
  147.9950  153.3570  138.2160 P   0  0  0  0  0  0  0  0  0  0  0  0
  149.2230  154.2090  137.9970 O   0  0  0  0  0  0  0  0  0  0  0  0
  147.0080  154.1040  139.3690 O   0  0  0  0  0  0  0  0  0  0  0  0
  148.4740  151.8360  138.7820 O   0  0  0  0  0  0  0  0  0  0  0  0
  147.3520  153.1310  134.5240 H   0  0  0  0  0  0  0  0  0  0  0  0
  149.8475  156.4888  132.1923 H   0  0  0  0  0  0  0  0  0  0  0  0
  149.0986  159.2508  132.1484 H   0  0  0  0  0  0  0  0  0  0  0  0
  147.2008  160.8185  132.6760 H   0  0  0  0  0  0  0  0  0  0  0  0
  144.1739  160.3291  132.7812 H   0  0  0  0  0  0  0  0  0  0  0  0
  144.0971  159.7442  134.4777 H   0  0  0  0  0  0  0  0  0  0  0  0
  144.8100  157.4543  134.0809 H   0  0  0  0  0  0  0  0  0  0  0  0
  147.8124  154.7985  135.6236 H   0  0  0  0  0  0  0  0  0  0  0  0
  146.7382  155.1787  137.0257 H   0  0  0  0  0  0  0  0  0  0  0  0
  1  2  1  0
  2  3  2  0
  2  4  1  0
  4  5  2  0
  5  6  1  0
  6  7  2  0
  7  8  1  0
  8  9  2  0
  9 10  1  0
 10 11  1  0
  9 12  1  0
 12 13  2  0
 13 14  1  0
 14 15  1  0
 15 16  2  0
 15 17  1  0
 17 18  1  0
 18 19  1  0
 19 20  1  0
 20 21  2  0
 20 22  1  0
 20 23  1  0
 14  4  1  0
 13  6  1  0
  1 24  1  0
  5 25  1  0
  7 26  1  0
  8 27  1  0
 10 28  1  0
 10 29  1  0
 12 30  1  0
 18 31  1  0
 18 32  1  0
M  CHG  3   1  -1  22  -1  23  -1
M  END
>  <UniqueID>  (52) 
52

>  <SMILES>  (52) 
[NH-]C(=O)c1cc2ccc(CF)cc2n1C(=O)OCOP(=O)([O-])[O-]

>  <Energy>  (52) 
68.61570056715959

>  <Genealogy>  (52) 
[NH-]C(=O)c1cc2ccc(CF)cc2n1C(=O)OCOP(=O)([O-])[O-] (protonated)
[NH-]C(=O)c1cc2ccc(CF)cc2n1C(=O)OCOP(=O)([O-])[O-] (3D coordinates assigned)
[NH-]C(=O)c1cc2ccc(CF)cc2n1C(=O)OCOP(=O)([O-])[O-] (optimized conformer: 68.61570056715959 kcal/mol)

>  <smiles>  (52) 
NC(=O)c1cc2ccc(CF)cc2n1C(=O)OCOP(=O)(O)O

>  <score_type>  (52) 
oracle

>  <origin>  (52) 
adg

>  <m_score__min__energy>  (52) 
-6.0599999999999996

>  <m_primary>  (52) 
energy

$$$$
52:0
     RDKit          3D

 45 46  0  0  0  0  0  0  0  0999 V2000
  141.6500  161.2280  133.8320 N   0  0  0  0  0  0  0  0  0  0  0  0
  141.8150  160.0550  134.6230 C   0  0  0  0  0  0  0  0  0  0  0  0
  141.3110  160.0130  135.7770 O   0  0  0  0  0  0  0  0  0  0  0  0
  142.6170  158.9140  134.1350 C   0  0  0  0  0  0  0  0  0  0  0  0
  142.1390  157.6060  134.0850 C   0  0  0  0  0  0  0  0  0  0  0  0
  143.2050  156.8450  133.6630 C   0  0  0  0  0  0  0  0  0  0  0  0
  143.2870  155.4780  133.4230 C   0  0  0  0  0  0  0  0  0  0  0  0
  144.5080  154.9630  132.9590 C   0  0  0  0  0  0  0  0  0  0  0  0
  145.6250  155.8140  132.7470 C   0  0  0  0  0  0  0  0  0  0  0  0
  146.8730  155.2750  132.2450 N   0  0  0  0  0  0  0  0  0  0  0  0
  147.7330  154.6220  133.2760 C   0  0  0  0  0  0  0  0  0  0  0  0
  147.5100  153.0780  133.2730 C   0  0  0  0  0  0  0  0  0  0  0  0
  146.4280  152.7070  132.4570 O   0  0  0  0  0  0  0  0  0  0  0  0
  147.4160  155.1980  134.6900 C   0  0  0  0  0  0  0  0  0  0  0  0
  147.8910  156.5110  134.8250 O   0  0  0  0  0  0  0  0  0  0  0  0
  149.2230  154.9400  132.9390 C   0  0  0  0  0  0  0  0  0  0  0  0
  149.3660  156.2470  132.4470 O   0  0  0  0  0  0  0  0  0  0  0  0
  145.4910  157.2030  132.9860 C   0  0  0  0  0  0  0  0  0  0  0  0
  144.2690  157.6850  133.4670 C   0  0  0  0  0  0  0  0  0  0  0  0
  143.9240  158.9610  133.7510 N   0  0  0  0  0  0  0  0  0  0  0  0
  144.7450  160.1260  133.5760 C   0  0  0  0  0  0  0  0  0  0  0  0
  144.4450  161.2010  134.1640 O   0  0  0  0  0  0  0  0  0  0  0  0
  145.8860  160.0560  132.7690 O   0  0  0  0  0  0  0  0  0  0  0  0
  147.2040  160.3080  133.2520 C   0  0  0  0  0  0  0  0  0  0  0  0
  148.0200  159.0550  133.2170 C   0  0  0  0  0  0  0  0  0  0  0  0
  148.8620  158.8240  134.1230 O   0  0  0  0  0  0  0  0  0  0  0  0
  147.8680  158.1530  132.1730 O   0  0  0  0  0  0  0  0  0  0  0  0
  142.4760  161.7740  133.5020 H   0  0  0  0  0  0  0  0  0  0  0  0
  141.1254  157.2563  134.3306 H   0  0  0  0  0  0  0  0  0  0  0  0
  142.4217  154.8200  133.5915 H   0  0  0  0  0  0  0  0  0  0  0  0
  144.6007  153.8857  132.7569 H   0  0  0  0  0  0  0  0  0  0  0  0
  146.6480  154.5900  131.4850 H   0  0  0  0  0  0  0  0  0  0  0  0
  147.4080  156.0500  131.7830 H   0  0  0  0  0  0  0  0  0  0  0  0
  148.4213  152.5877  132.9000 H   0  0  0  0  0  0  0  0  0  0  0  0
  147.2841  152.7639  134.3027 H   0  0  0  0  0  0  0  0  0  0  0  0
  146.7760  152.6200  131.5320 H   0  0  0  0  0  0  0  0  0  0  0  0
  146.3266  155.1939  134.8424 H   0  0  0  0  0  0  0  0  0  0  0  0
  147.9170  154.5692  135.4408 H   0  0  0  0  0  0  0  0  0  0  0  0
  147.9170  156.8930  133.9090 H   0  0  0  0  0  0  0  0  0  0  0  0
  149.8278  154.8322  133.8515 H   0  0  0  0  0  0  0  0  0  0  0  0
  149.5615  154.2375  132.1631 H   0  0  0  0  0  0  0  0  0  0  0  0
  149.2930  156.8610  133.2240 H   0  0  0  0  0  0  0  0  0  0  0  0
  146.3301  157.8888  132.7974 H   0  0  0  0  0  0  0  0  0  0  0  0
  147.6825  161.0700  132.6193 H   0  0  0  0  0  0  0  0  0  0  0  0
  147.1415  160.6645  134.2908 H   0  0  0  0  0  0  0  0  0  0  0  0
  1  2  1  0
  2  3  2  0
  2  4  1  0
  4  5  2  0
  5  6  1  0
  6  7  2  0
  7  8  1  0
  8  9  2  0
  9 10  1  0
 10 11  1  0
 11 12  1  0
 12 13  1  0
 11 14  1  0
 14 15  1  0
 11 16  1  0
 16 17  1  0
  9 18  1  0
 18 19  2  0
 19 20  1  0
 20 21  1  0
 21 22  2  0
 21 23  1  0
 23 24  1  0
 24 25  1  0
 25 26  2  0
 25 27  1  0
 20  4  1  0
 19  6  1  0
  1 28  1  0
  5 29  1  0
  7 30  1  0
  8 31  1  0
 10 32  1  0
 10 33  1  0
 12 34  1  0
 12 35  1  0
 13 36  1  0
 14 37  1  0
 14 38  1  0
 15 39  1  0
 16 40  1  0
 16 41  1  0
 17 42  1  0
 18 43  1  0
 24 44  1  0
 24 45  1  0
M  CHG  3   1  -1  10   1  27  -1
M  END
>  <UniqueID>  (53) 
53

>  <SMILES>  (53) 
[NH-]C(=O)c1cc2ccc([NH2+]C(CO)(CO)CO)cc2n1C(=O)OCC(=O)[O-]

>  <Energy>  (53) 
87.25158830730713

>  <Genealogy>  (53) 
[NH-]C(=O)c1cc2ccc([NH2+]C(CO)(CO)CO)cc2n1C(=O)OCC(=O)[O-] (protonated)
[NH-]C(=O)c1cc2ccc([NH2+]C(CO)(CO)CO)cc2n1C(=O)OCC(=O)[O-] (3D coordinates assigned)
[NH-]C(=O)c1cc2ccc([NH2+]C(CO)(CO)CO)cc2n1C(=O)OCC(=O)[O-] (optimized conformer: 87.25158830730713 kcal/mol)

>  <smiles>  (53) 
NC(=O)c1cc2ccc(NC(CO)(CO)CO)cc2n1C(=O)OCC(=O)O

>  <score_type>  (53) 
oracle

>  <origin>  (53) 
adg

>  <m_score__min__energy>  (53) 
-3.9700000000000002

>  <m_primary>  (53) 
energy

$$$$
53:0
     RDKit          3D

 32 33  0  0  0  0  0  0  0  0999 V2000
  142.3270  158.3980  134.4940 C   0  0  0  0  0  0  0  0  0  0  0  0
  143.6260  159.0060  134.0560 C   0  0  0  0  0  0  0  0  0  0  0  0
  143.8170  160.4070  134.1400 C   0  0  0  0  0  0  0  0  0  0  0  0
  145.0470  160.9840  133.7810 C   0  0  0  0  0  0  0  0  0  0  0  0
  146.0630  160.1360  133.3480 C   0  0  0  0  0  0  0  0  0  0  0  0
  147.3560  160.4240  132.9740 C   0  0  0  0  0  0  0  0  0  0  0  0
  147.9310  159.1950  132.6600 C   0  0  0  0  0  0  0  0  0  0  0  0
  149.3030  159.0510  132.1290 C   0  0  0  0  0  0  0  0  0  0  0  0
  149.8510  157.7650  131.8540 N   0  0  0  0  0  0  0  0  0  0  0  0
  149.9830  160.0810  131.8690 O   0  0  0  0  0  0  0  0  0  0  0  0
  147.0320  158.1860  132.8410 N   0  0  0  0  0  0  0  0  0  0  0  0
  147.2650  156.7740  132.7240 C   0  0  0  0  0  0  0  0  0  0  0  0
  147.0930  156.1980  131.6150 O   0  0  0  0  0  0  0  0  0  0  0  0
  147.6610  156.0410  133.8490 O   0  0  0  0  0  0  0  0  0  0  0  0
  147.6560  154.6160  133.9000 C   0  0  0  0  0  0  0  0  0  0  0  0
  148.6560  154.0280  132.9040 C   0  0  0  0  0  0  0  0  0  0  0  0
  149.6140  154.9860  132.5450 O   0  0  0  0  0  0  0  0  0  0  0  0
  145.8930  158.7780  133.2590 C   0  0  0  0  0  0  0  0  0  0  0  0
  144.6850  158.1750  133.6290 C   0  0  0  0  0  0  0  0  0  0  0  0
  142.2837  158.3777  135.5930 H   0  0  0  0  0  0  0  0  0  0  0  0
  141.4915  158.9986  134.1052 H   0  0  0  0  0  0  0  0  0  0  0  0
  142.2529  157.3717  134.1052 H   0  0  0  0  0  0  0  0  0  0  0  0
  142.9951  161.0491  134.4894 H   0  0  0  0  0  0  0  0  0  0  0  0
  145.2023  162.0714  133.8402 H   0  0  0  0  0  0  0  0  0  0  0  0
  147.8335  161.4141  132.9320 H   0  0  0  0  0  0  0  0  0  0  0  0
  149.2310  156.9410  131.6930 H   0  0  0  0  0  0  0  0  0  0  0  0
  147.9269  154.2915  134.9156 H   0  0  0  0  0  0  0  0  0  0  0  0
  146.6491  154.2597  133.6370 H   0  0  0  0  0  0  0  0  0  0  0  0
  149.1611  153.1662  133.3646 H   0  0  0  0  0  0  0  0  0  0  0  0
  148.1137  153.7121  132.0006 H   0  0  0  0  0  0  0  0  0  0  0  0
  149.1150  155.7880  132.2390 H   0  0  0  0  0  0  0  0  0  0  0  0
  144.5638  157.0825  133.5882 H   0  0  0  0  0  0  0  0  0  0  0  0
  1  2  1  0
  2  3  2  0
  3  4  1  0
  4  5  2  0
  5  6  1  0
  6  7  2  0
  7  8  1  0
  8  9  1  0
  8 10  2  0
  7 11  1  0
 11 12  1  0
 12 13  2  0
 12 14  1  0
 14 15  1  0
 15 16  1  0
 16 17  1  0
 11 18  1  0
 18 19  2  0
 19  2  1  0
 18  5  1  0
  1 20  1  0
  1 21  1  0
  1 22  1  0
  3 23  1  0
  4 24  1  0
  6 25  1  0
  9 26  1  0
 15 27  1  0
 15 28  1  0
 16 29  1  0
 16 30  1  0
 17 31  1  0
 19 32  1  0
M  CHG  1   9  -1
M  END
>  <UniqueID>  (54) 
54

>  <SMILES>  (54) 
Cc1ccc2cc(C([NH-])=O)n(C(=O)OCCO)c2c1

>  <Energy>  (54) 
67.08553230892436

>  <Genealogy>  (54) 
Cc1ccc2cc(C([NH-])=O)n(C(=O)OCCO)c2c1 (protonated)
Cc1ccc2cc(C([NH-])=O)n(C(=O)OCCO)c2c1 (3D coordinates assigned)
Cc1ccc2cc(C([NH-])=O)n(C(=O)OCCO)c2c1 (optimized conformer: 67.08553230892436 kcal/mol)

>  <smiles>  (54) 
Cc1ccc2cc(C(N)=O)n(C(=O)OCCO)c2c1

>  <score_type>  (54) 
oracle

>  <origin>  (54) 
adg

>  <m_score__min__energy>  (54) 
-5.5300000000000002

>  <m_primary>  (54) 
energy

$$$$
54:0
     RDKit          3D

 30 31  0  0  0  0  0  0  0  0999 V2000
  144.2810  162.2780  133.7370 N   0  0  0  0  0  0  0  0  0  0  0  0
  143.9280  160.9010  133.8380 C   0  0  0  0  0  0  0  0  0  0  0  0
  142.7600  160.5880  134.1840 O   0  0  0  0  0  0  0  0  0  0  0  0
  144.9420  159.8590  133.5640 C   0  0  0  0  0  0  0  0  0  0  0  0
  146.3060  160.1200  133.4480 C   0  0  0  0  0  0  0  0  0  0  0  0
  146.8990  158.8910  133.2610 C   0  0  0  0  0  0  0  0  0  0  0  0
  148.2370  158.5620  133.0710 C   0  0  0  0  0  0  0  0  0  0  0  0
  148.5590  157.2080  132.8690 C   0  0  0  0  0  0  0  0  0  0  0  0
  147.5450  156.2190  132.8550 C   0  0  0  0  0  0  0  0  0  0  0  0
  147.9090  154.7800  132.6200 C   0  0  0  0  0  0  0  0  0  0  0  0
  149.2830  154.6590  132.5180 F   0  0  0  0  0  0  0  0  0  0  0  0
  147.4580  154.0060  133.6740 F   0  0  0  0  0  0  0  0  0  0  0  0
  146.1960  156.5920  133.0480 C   0  0  0  0  0  0  0  0  0  0  0  0
  145.9070  157.9450  133.2660 C   0  0  0  0  0  0  0  0  0  0  0  0
  144.7020  158.5230  133.4530 N   0  0  0  0  0  0  0  0  0  0  0  0
  143.4320  157.8540  133.4680 C   0  0  0  0  0  0  0  0  0  0  0  0
  143.3370  156.7050  133.9790 O   0  0  0  0  0  0  0  0  0  0  0  0
  142.2780  158.4920  132.9100 N   0  0  0  0  0  0  0  0  0  0  0  0
  140.6870  157.7560  132.9890 P   0  0  2  0  0  0  0  0  0  0  0  0
  139.8450  158.2490  131.8340 O   0  0  0  0  0  0  0  0  0  0  0  0
  139.9420  158.1820  134.4460 O   0  0  0  0  0  0  0  0  0  0  0  0
  140.8340  156.0740  132.9040 O   0  0  0  0  0  0  0  0  0  0  0  0
  145.1740  162.5710  133.2820 H   0  0  0  0  0  0  0  0  0  0  0  0
  146.8036  161.0999  133.4957 H   0  0  0  0  0  0  0  0  0  0  0  0
  149.0184  159.3362  133.0785 H   0  0  0  0  0  0  0  0  0  0  0  0
  149.6085  156.9141  132.7204 H   0  0  0  0  0  0  0  0  0  0  0  0
  147.4391  154.4368  131.6865 H   0  0  0  0  0  0  0  0  0  0  0  0
  145.3938  155.8396  133.0276 H   0  0  0  0  0  0  0  0  0  0  0  0
  142.3810  159.4090  132.4220 H   0  0  0  0  0  0  0  0  0  0  0  0
  141.7680  155.9150  132.6150 H   0  0  0  0  0  0  0  0  0  0  0  0
  1  2  1  0
  2  3  2  0
  2  4  1  0
  4  5  2  0
  5  6  1  0
  6  7  2  0
  7  8  1  0
  8  9  2  0
  9 10  1  0
 10 11  1  0
 10 12  1  0
  9 13  1  0
 13 14  2  0
 14 15  1  0
 15 16  1  0
 16 17  2  0
 16 18  1  0
 18 19  1  0
 19 20  2  0
 19 21  1  1
 19 22  1  0
 15  4  1  0
 14  6  1  0
  1 23  1  0
  5 24  1  0
  7 25  1  0
  8 26  1  0
 10 27  1  0
 13 28  1  0
 18 29  1  0
 22 30  1  0
M  CHG  2   1  -1  21  -1
M  END
>  <UniqueID>  (55) 
55

>  <SMILES>  (55) 
[NH-]C(=O)c1cc2ccc(C(F)F)cc2n1C(=O)N[P@](=O)([O-])O

>  <Energy>  (55) 
64.26144128302762

>  <Genealogy>  (55) 
[NH-]C(=O)c1cc2ccc(C(F)F)cc2n1C(=O)NP(=O)([O-])O (protonated)
[NH-]C(=O)c1cc2ccc(C(F)F)cc2n1C(=O)N[P@](=O)([O-])O (chirality)
[NH-]C(=O)c1cc2ccc(C(F)F)cc2n1C(=O)N[P@](=O)([O-])O (3D coordinates assigned)
[NH-]C(=O)c1cc2ccc(C(F)F)cc2n1C(=O)N[P@](=O)([O-])O (optimized conformer: 64.26144128302762 kcal/mol)

>  <smiles>  (55) 
NC(=O)c1cc2ccc(C(F)F)cc2n1C(=O)NP(=O)(O)O

>  <score_type>  (55) 
oracle

>  <origin>  (55) 
adg

>  <m_score__min__energy>  (55) 
-6.4500000000000002

>  <m_primary>  (55) 
energy

$$$$
55:0
     RDKit          3D

 32 33  0  0  0  0  0  0  0  0999 V2000
  149.0050  158.0580  131.7630 N   0  0  0  0  0  0  0  0  0  0  0  0
  148.4540  158.7780  132.8630 C   0  0  0  0  0  0  0  0  0  0  0  0
  149.2240  159.3980  133.6430 O   0  0  0  0  0  0  0  0  0  0  0  0
  147.0000  158.7620  133.1290 C   0  0  0  0  0  0  0  0  0  0  0  0
  146.2080  159.9090  133.1330 C   0  0  0  0  0  0  0  0  0  0  0  0
  144.9560  159.4870  133.5180 C   0  0  0  0  0  0  0  0  0  0  0  0
  143.7830  160.2120  133.6960 C   0  0  0  0  0  0  0  0  0  0  0  0
  142.6280  159.5120  134.0860 C   0  0  0  0  0  0  0  0  0  0  0  0
  142.6590  158.1050  134.2670 C   0  0  0  0  0  0  0  0  0  0  0  0
  141.4240  157.3700  134.7210 C   0  0  0  0  0  0  0  0  0  0  0  0
  141.7110  156.5470  135.7960 F   0  0  0  0  0  0  0  0  0  0  0  0
  140.9170  156.5850  133.6990 F   0  0  0  0  0  0  0  0  0  0  0  0
  140.4630  158.2890  135.1000 F   0  0  0  0  0  0  0  0  0  0  0  0
  143.8790  157.4080  134.0980 C   0  0  0  0  0  0  0  0  0  0  0  0
  145.0160  158.1340  133.7270 C   0  0  0  0  0  0  0  0  0  0  0  0
  146.2630  157.6730  133.4890 N   0  0  0  0  0  0  0  0  0  0  0  0
  146.6840  156.3020  133.5360 C   0  0  0  0  0  0  0  0  0  0  0  0
  147.2590  155.7840  132.5400 O   0  0  0  0  0  0  0  0  0  0  0  0
  146.4410  155.5420  134.6860 O   0  0  0  0  0  0  0  0  0  0  0  0
  147.3810  154.6100  135.2140 C   0  0  0  0  0  0  0  0  0  0  0  0
  147.8790  155.0450  136.4600 O   0  0  0  0  0  0  0  0  0  0  0  0
  147.9030  153.7280  137.5460 P   0  0  0  0  0  0  0  0  0  0  0  0
  149.2370  153.0170  137.4810 O   0  0  0  0  0  0  0  0  0  0  0  0
  146.6830  152.6420  137.1120 O   0  0  0  0  0  0  0  0  0  0  0  0
  147.6220  154.2620  139.1280 O   0  0  0  0  0  0  0  0  0  0  0  0
  148.6310  157.1220  131.4930 H   0  0  0  0  0  0  0  0  0  0  0  0
  146.5180  160.9341  132.8817 H   0  0  0  0  0  0  0  0  0  0  0  0
  143.7595  161.3001  133.5365 H   0  0  0  0  0  0  0  0  0  0  0  0
  141.6896  160.0612  134.2527 H   0  0  0  0  0  0  0  0  0  0  0  0
  143.9321  156.3205  134.2547 H   0  0  0  0  0  0  0  0  0  0  0  0
  146.8872  153.6357  135.3443 H   0  0  0  0  0  0  0  0  0  0  0  0
  148.2225  154.5246  134.5108 H   0  0  0  0  0  0  0  0  0  0  0  0
  1  2  1  0
  2  3  2  0
  2  4  1  0
  4  5  2  0
  5  6  1  0
  6  7  2  0
  7  8  1  0
  8  9  2  0
  9 10  1  0
 10 11  1  0
 10 12  1  0
 10 13  1  0
  9 14  1  0
 14 15  2  0
 15 16  1  0
 16 17  1  0
 17 18  2  0
 17 19  1  0
 19 20  1  0
 20 21  1  0
 21 22  1  0
 22 23  2  0
 22 24  1  0
 22 25  1  0
 16  4  1  0
 15  6  1  0
  1 26  1  0
  5 27  1  0
  7 28  1  0
  8 29  1  0
 14 30  1  0
 20 31  1  0
 20 32  1  0
M  CHG  3   1  -1  24  -1  25  -1
M  END
>  <UniqueID>  (56) 
56

>  <SMILES>  (56) 
[NH-]C(=O)c1cc2ccc(C(F)(F)F)cc2n1C(=O)OCOP(=O)([O-])[O-]

>  <Energy>  (56) 
70.3136204103376

>  <Genealogy>  (56) 
[NH-]C(=O)c1cc2ccc(C(F)(F)F)cc2n1C(=O)OCOP(=O)([O-])[O-] (protonated)
[NH-]C(=O)c1cc2ccc(C(F)(F)F)cc2n1C(=O)OCOP(=O)([O-])[O-] (3D coordinates assigned)
[NH-]C(=O)c1cc2ccc(C(F)(F)F)cc2n1C(=O)OCOP(=O)([O-])[O-] (optimized conformer: 70.3136204103376 kcal/mol)

>  <smiles>  (56) 
NC(=O)c1cc2ccc(C(F)(F)F)cc2n1C(=O)OCOP(=O)(O)O

>  <score_type>  (56) 
oracle

>  <origin>  (56) 
adg

>  <m_score__min__energy>  (56) 
-6.3200000000000003

>  <m_primary>  (56) 
energy

$$$$
56:0
     RDKit          3D

 43 44  0  0  0  0  0  0  0  0999 V2000
  148.2570  160.8060  131.6950 C   0  0  0  0  0  0  0  0  0  0  0  0
  147.8490  159.5620  132.4380 C   0  0  0  0  0  0  0  0  0  0  0  0
  148.8410  158.7030  132.9720 C   0  0  0  0  0  0  0  0  0  0  0  0
  148.4820  157.5560  133.6890 C   0  0  0  0  0  0  0  0  0  0  0  0
  147.1280  157.2690  133.8290 C   0  0  0  0  0  0  0  0  0  0  0  0
  146.5160  156.2690  134.5420 C   0  0  0  0  0  0  0  0  0  0  0  0
  145.1500  156.5050  134.4070 C   0  0  0  0  0  0  0  0  0  0  0  0
  144.1160  155.6940  135.0720 C   0  0  0  0  0  0  0  0  0  0  0  0
  142.8050  156.1940  135.2860 N   0  0  0  0  0  0  0  0  0  0  0  0
  144.3950  154.5280  135.4480 O   0  0  0  0  0  0  0  0  0  0  0  0
  144.9210  157.6090  133.6360 N   0  0  0  0  0  0  0  0  0  0  0  0
  143.6550  158.2840  133.4490 C   0  0  0  0  0  0  0  0  0  0  0  0
  142.8340  157.8600  132.5890 O   0  0  0  0  0  0  0  0  0  0  0  0
  143.2740  159.4290  134.2750 C   0  0  0  0  0  0  0  0  0  0  0  0
  143.8580  160.5340  134.1190 O   0  0  0  0  0  0  0  0  0  0  0  0
  142.3550  159.2460  135.3010 O   0  0  0  0  0  0  0  0  0  0  0  0
  140.9420  159.3180  135.1230 C   0  0  0  0  0  0  0  0  0  0  0  0
  140.3660  157.9410  134.8790 C   0  0  0  0  0  0  0  0  0  0  0  0
  140.5050  157.0600  135.7740 O   0  0  0  0  0  0  0  0  0  0  0  0
  139.6890  157.6100  133.6390 N   0  0  0  0  0  0  0  0  0  0  0  0
  139.8570  156.2790  133.0280 C   0  0  0  0  0  0  0  0  0  0  0  0
  138.8370  158.6170  132.9730 C   0  0  0  0  0  0  0  0  0  0  0  0
  139.6650  159.5110  132.0780 C   0  0  0  0  0  0  0  0  0  0  0  0
  139.7870  159.2610  130.8440 O   0  0  0  0  0  0  0  0  0  0  0  0
  140.2440  160.6600  132.6090 O   0  0  0  0  0  0  0  0  0  0  0  0
  146.1500  158.0650  133.2890 C   0  0  0  0  0  0  0  0  0  0  0  0
  146.4860  159.2400  132.5930 C   0  0  0  0  0  0  0  0  0  0  0  0
  148.5159  161.5954  132.4160 H   0  0  0  0  0  0  0  0  0  0  0  0
  149.1300  160.5859  131.0630 H   0  0  0  0  0  0  0  0  0  0  0  0
  147.4232  161.1457  131.0630 H   0  0  0  0  0  0  0  0  0  0  0  0
  149.9046  158.9401  132.8215 H   0  0  0  0  0  0  0  0  0  0  0  0
  149.2480  156.9006  134.1290 H   0  0  0  0  0  0  0  0  0  0  0  0
  147.0007  155.4549  135.1008 H   0  0  0  0  0  0  0  0  0  0  0  0
  142.1010  155.5810  135.7470 H   0  0  0  0  0  0  0  0  0  0  0  0
  142.5050  157.1000  134.8630 H   0  0  0  0  0  0  0  0  0  0  0  0
  140.4850  159.7461  136.0273 H   0  0  0  0  0  0  0  0  0  0  0  0
  140.7260  159.9527  134.2509 H   0  0  0  0  0  0  0  0  0  0  0  0
  139.9526  155.5215  133.8198 H   0  0  0  0  0  0  0  0  0  0  0  0
  138.9808  156.0487  132.4041 H   0  0  0  0  0  0  0  0  0  0  0  0
  140.7629  156.2737  132.4041 H   0  0  0  0  0  0  0  0  0  0  0  0
  138.0774  158.1026  132.3661 H   0  0  0  0  0  0  0  0  0  0  0  0
  138.3550  159.2370  133.7432 H   0  0  0  0  0  0  0  0  0  0  0  0
  145.7030  159.8925  132.1793 H   0  0  0  0  0  0  0  0  0  0  0  0
  1  2  1  0
  2  3  2  0
  3  4  1  0
  4  5  2  0
  5  6  1  0
  6  7  2  0
  7  8  1  0
  8  9  1  0
  8 10  2  0
  7 11  1  0
 11 12  1  0
 12 13  2  0
 12 14  1  0
 14 15  2  0
 14 16  1  0
 16 17  1  0
 17 18  1  0
 18 19  2  0
 18 20  1  0
 20 21  1  0
 20 22  1  0
 22 23  1  0
 23 24  2  0
 23 25  1  0
 11 26  1  0
 26 27  2  0
 27  2  1  0
 26  5  1  0
  1 28  1  0
  1 29  1  0
  1 30  1  0
  3 31  1  0
  4 32  1  0
  6 33  1  0
  9 34  1  0
  9 35  1  0
 17 36  1  0
 17 37  1  0
 21 38  1  0
 21 39  1  0
 21 40  1  0
 22 41  1  0
 22 42  1  0
 27 43  1  0
M  CHG  1  25  -1
M  END
>  <UniqueID>  (57) 
57

>  <SMILES>  (57) 
Cc1ccc2cc(C(N)=O)n(C(=O)C(=O)OCC(=O)N(C)CC(=O)[O-])c2c1

>  <Energy>  (57) 
83.71930392744558

>  <Genealogy>  (57) 
Cc1ccc2cc(C(N)=O)n(C(=O)C(=O)OCC(=O)N(C)CC(=O)[O-])c2c1 (protonated)
Cc1ccc2cc(C(N)=O)n(C(=O)C(=O)OCC(=O)N(C)CC(=O)[O-])c2c1 (3D coordinates assigned)
Cc1ccc2cc(C(N)=O)n(C(=O)C(=O)OCC(=O)N(C)CC(=O)[O-])c2c1 (optimized conformer: 83.71930392744558 kcal/mol)

>  <smiles>  (57) 
Cc1ccc2cc(C(N)=O)n(C(=O)C(=O)OCC(=O)N(C)CC(=O)O)c2c1

>  <score_type>  (57) 
oracle

>  <origin>  (57) 
adg

>  <m_score__min__energy>  (57) 
-6.8700000000000001

>  <m_primary>  (57) 
energy

$$$$
57:0
     RDKit          3D

 39 40  0  0  0  0  0  0  0  0999 V2000
  148.5080  157.1190  132.9180 C   0  0  0  0  0  0  0  0  0  0  0  0
  147.4390  158.1390  133.1760 C   0  0  0  0  0  0  0  0  0  0  0  0
  147.7590  159.5190  133.1700 C   0  0  0  0  0  0  0  0  0  0  0  0
  146.7590  160.4870  133.3620 C   0  0  0  0  0  0  0  0  0  0  0  0
  145.4520  160.0450  133.5520 C   0  0  0  0  0  0  0  0  0  0  0  0
  144.2920  160.7630  133.7290 C   0  0  0  0  0  0  0  0  0  0  0  0
  143.2810  159.8100  133.8470 C   0  0  0  0  0  0  0  0  0  0  0  0
  141.8730  160.1460  134.1360 C   0  0  0  0  0  0  0  0  0  0  0  0
  141.3970  160.1120  135.4800 N   0  0  0  0  0  0  0  0  0  0  0  0
  141.0720  160.4290  133.2060 O   0  0  0  0  0  0  0  0  0  0  0  0
  143.7960  158.5520  133.7370 N   0  0  0  0  0  0  0  0  0  0  0  0
  143.0820  157.3070  133.7240 C   0  0  0  0  0  0  0  0  0  0  0  0
  143.6890  156.2370  133.9970 O   0  0  0  0  0  0  0  0  0  0  0  0
  141.6910  157.2890  133.3710 N   0  0  0  0  0  0  0  0  0  0  0  0
  140.6270  156.4740  133.9700 C   0  0  0  0  0  0  0  0  0  0  0  0
  140.6070  155.0790  133.3070 C   0  0  0  0  0  0  0  0  0  0  0  0
  140.9720  156.3310  135.4700 C   0  0  0  0  0  0  0  0  0  0  0  0
  141.1410  157.5820  136.0830 O   0  0  0  0  0  0  0  0  0  0  0  0
  139.2670  157.1930  133.7950 C   0  0  0  0  0  0  0  0  0  0  0  0
  139.3340  158.5190  134.2480 O   0  0  0  0  0  0  0  0  0  0  0  0
  145.1260  158.7130  133.5600 C   0  0  0  0  0  0  0  0  0  0  0  0
  146.1000  157.7280  133.3540 C   0  0  0  0  0  0  0  0  0  0  0  0
  148.8984  156.7465  133.8766 H   0  0  0  0  0  0  0  0  0  0  0  0
  148.0848  156.2814  132.3441 H   0  0  0  0  0  0  0  0  0  0  0  0
  149.3248  157.5810  132.3441 H   0  0  0  0  0  0  0  0  0  0  0  0
  148.8007  159.8358  133.0135 H   0  0  0  0  0  0  0  0  0  0  0  0
  147.0007  161.5601  133.3623 H   0  0  0  0  0  0  0  0  0  0  0  0
  144.1848  161.8570  133.7690 H   0  0  0  0  0  0  0  0  0  0  0  0
  140.5230  159.5960  135.7270 H   0  0  0  0  0  0  0  0  0  0  0  0
  140.5959  154.3028  134.0863 H   0  0  0  0  0  0  0  0  0  0  0  0
  139.7074  154.9833  132.6813 H   0  0  0  0  0  0  0  0  0  0  0  0
  141.5035  154.9575  132.6813 H   0  0  0  0  0  0  0  0  0  0  0  0
  140.1553  155.7938  135.9744 H   0  0  0  0  0  0  0  0  0  0  0  0
  141.9181  155.7762  135.5539 H   0  0  0  0  0  0  0  0  0  0  0  0
  141.2110  158.2430  135.3460 H   0  0  0  0  0  0  0  0  0  0  0  0
  138.9942  157.1909  132.7294 H   0  0  0  0  0  0  0  0  0  0  0  0
  138.5108  156.6589  134.3891 H   0  0  0  0  0  0  0  0  0  0  0  0
  140.2980  158.7260  134.3600 H   0  0  0  0  0  0  0  0  0  0  0  0
  145.8290  156.6621  133.3315 H   0  0  0  0  0  0  0  0  0  0  0  0
  1  2  1  0
  2  3  2  0
  3  4  1  0
  4  5  2  0
  5  6  1  0
  6  7  2  0
  7  8  1  0
  8  9  1  0
  8 10  2  0
  7 11  1  0
 11 12  1  0
 12 13  2  0
 12 14  1  0
 14 15  1  0
 15 16  1  0
 15 17  1  0
 17 18  1  0
 15 19  1  0
 19 20  1  0
 11 21  1  0
 21 22  2  0
 22  2  1  0
 21  5  1  0
  1 23  1  0
  1 24  1  0
  1 25  1  0
  3 26  1  0
  4 27  1  0
  6 28  1  0
  9 29  1  0
 16 30  1  0
 16 31  1  0
 16 32  1  0
 17 33  1  0
 17 34  1  0
 18 35  1  0
 19 36  1  0
 19 37  1  0
 20 38  1  0
 22 39  1  0
M  CHG  2   9  -1  14  -1
M  END
>  <UniqueID>  (58) 
58

>  <SMILES>  (58) 
Cc1ccc2cc(C([NH-])=O)n(C(=O)[N-]C(C)(CO)CO)c2c1

>  <Energy>  (58) 
74.05751998579636

>  <Genealogy>  (58) 
Cc1ccc2cc(C([NH-])=O)n(C(=O)[N-]C(C)(CO)CO)c2c1 (protonated)
Cc1ccc2cc(C([NH-])=O)n(C(=O)[N-]C(C)(CO)CO)c2c1 (3D coordinates assigned)
Cc1ccc2cc(C([NH-])=O)n(C(=O)[N-]C(C)(CO)CO)c2c1 (optimized conformer: 74.05751998579636 kcal/mol)

>  <smiles>  (58) 
Cc1ccc2cc(C(N)=O)n(C(=O)NC(C)(CO)CO)c2c1

>  <score_type>  (58) 
oracle

>  <origin>  (58) 
adg

>  <m_score__min__energy>  (58) 
-5.4199999999999999

>  <m_primary>  (58) 
energy

$$$$
58:0
     RDKit          3D

 45 46  0  0  0  0  0  0  0  0999 V2000
  139.4190  159.1040  132.8540 C   0  0  0  0  0  0  0  0  0  0  0  0
  140.3360  158.8900  133.9800 N   0  0  0  0  0  0  0  0  0  0  0  0
  139.8270  158.2450  135.1960 C   0  0  0  0  0  0  0  0  0  0  0  0
  141.7190  159.3210  133.8970 C   0  0  0  0  0  0  0  0  0  0  0  0
  142.0410  160.7040  133.7790 C   0  0  0  0  0  0  0  0  0  0  0  0
  143.3750  161.1320  133.6960 C   0  0  0  0  0  0  0  0  0  0  0  0
  144.3760  160.1690  133.7480 C   0  0  0  0  0  0  0  0  0  0  0  0
  145.7420  160.3130  133.6670 C   0  0  0  0  0  0  0  0  0  0  0  0
  146.2540  159.0220  133.7650 C   0  0  0  0  0  0  0  0  0  0  0  0
  147.6990  158.7210  133.7860 C   0  0  0  0  0  0  0  0  0  0  0  0
  148.1740  157.3770  133.7160 N   0  0  0  0  0  0  0  0  0  0  0  0
  148.5250  159.6630  133.9230 O   0  0  0  0  0  0  0  0  0  0  0  0
  145.2450  158.1120  133.8840 N   0  0  0  0  0  0  0  0  0  0  0  0
  145.3600  156.6790  133.8970 C   0  0  0  0  0  0  0  0  0  0  0  0
  145.9230  156.1020  134.8670 O   0  0  0  0  0  0  0  0  0  0  0  0
  144.8450  155.9280  132.8370 O   0  0  0  0  0  0  0  0  0  0  0  0
  145.5970  154.9230  132.1670 C   0  0  0  0  0  0  0  0  0  0  0  0
  146.9490  155.3490  132.0390 O   0  0  0  0  0  0  0  0  0  0  0  0
  148.0170  154.6630  132.6250 C   0  0  0  0  0  0  0  0  0  0  0  0
  149.1270  155.2340  132.7990 O   0  0  0  0  0  0  0  0  0  0  0  0
  147.8400  153.2350  133.0360 C   0  0  0  0  0  0  0  0  0  0  0  0
  148.4790  152.9900  134.4060 C   0  0  0  0  0  0  0  0  0  0  0  0
  147.8540  153.8720  135.4420 C   0  0  0  0  0  0  0  0  0  0  0  0
  147.1250  153.3770  136.3430 O   0  0  0  0  0  0  0  0  0  0  0  0
  148.1030  155.2380  135.4310 O   0  0  0  0  0  0  0  0  0  0  0  0
  144.0990  158.8340  133.8770 C   0  0  0  0  0  0  0  0  0  0  0  0
  142.7780  158.3750  133.9320 C   0  0  0  0  0  0  0  0  0  0  0  0
  138.4152  159.3383  133.2380 H   0  0  0  0  0  0  0  0  0  0  0  0
  139.7814  159.9417  132.2401 H   0  0  0  0  0  0  0  0  0  0  0  0
  139.3732  158.1924  132.2401 H   0  0  0  0  0  0  0  0  0  0  0  0
  140.2322  158.7584  136.0804 H   0  0  0  0  0  0  0  0  0  0  0  0
  138.7286  158.3029  135.2095 H   0  0  0  0  0  0  0  0  0  0  0  0
  140.1387  157.1902  135.2095 H   0  0  0  0  0  0  0  0  0  0  0  0
  141.2312  161.4480  133.7526 H   0  0  0  0  0  0  0  0  0  0  0  0
  143.6214  162.1991  133.5927 H   0  0  0  0  0  0  0  0  0  0  0  0
  146.3086  161.2485  133.5498 H   0  0  0  0  0  0  0  0  0  0  0  0
  147.5150  156.5680  133.7730 H   0  0  0  0  0  0  0  0  0  0  0  0
  149.2000  157.1840  133.7100 H   0  0  0  0  0  0  0  0  0  0  0  0
  145.5601  153.9893  132.7473 H   0  0  0  0  0  0  0  0  0  0  0  0
  145.1705  154.7506  131.1678 H   0  0  0  0  0  0  0  0  0  0  0  0
  146.7659  153.0042  133.0907 H   0  0  0  0  0  0  0  0  0  0  0  0
  148.3288  152.5871  132.2936 H   0  0  0  0  0  0  0  0  0  0  0  0
  148.3326  151.9376  134.6906 H   0  0  0  0  0  0  0  0  0  0  0  0
  149.5528  153.2204  134.3438 H   0  0  0  0  0  0  0  0  0  0  0  0
  142.5632  157.2984  134.0013 H   0  0  0  0  0  0  0  0  0  0  0  0
  1  2  1  0
  2  3  1  0
  2  4  1  0
  4  5  2  0
  5  6  1  0
  6  7  2  0
  7  8  1  0
  8  9  2  0
  9 10  1  0
 10 11  1  0
 10 12  2  0
  9 13  1  0
 13 14  1  0
 14 15  2  0
 14 16  1  0
 16 17  1  0
 17 18  1  0
 18 19  1  0
 19 20  2  0
 19 21  1  0
 21 22  1  0
 22 23  1  0
 23 24  2  0
 23 25  1  0
 13 26  1  0
 26 27  2  0
 27  4  1  0
 26  7  1  0
  1 28  1  0
  1 29  1  0
  1 30  1  0
  3 31  1  0
  3 32  1  0
  3 33  1  0
  5 34  1  0
  6 35  1  0
  8 36  1  0
 11 37  1  0
 11 38  1  0
 17 39  1  0
 17 40  1  0
 21 41  1  0
 21 42  1  0
 22 43  1  0
 22 44  1  0
 27 45  1  0
M  CHG  1  25  -1
M  END
>  <UniqueID>  (59) 
59

>  <SMILES>  (59) 
CN(C)c1ccc2cc(C(N)=O)n(C(=O)OCOC(=O)CCC(=O)[O-])c2c1

>  <Energy>  (59) 
76.3774899820288

>  <Genealogy>  (59) 
CN(C)c1ccc2cc(C(N)=O)n(C(=O)OCOC(=O)CCC(=O)[O-])c2c1 (protonated)
CN(C)c1ccc2cc(C(N)=O)n(C(=O)OCOC(=O)CCC(=O)[O-])c2c1 (3D coordinates assigned)
CN(C)c1ccc2cc(C(N)=O)n(C(=O)OCOC(=O)CCC(=O)[O-])c2c1 (optimized conformer: 76.3774899820288 kcal/mol)

>  <smiles>  (59) 
CN(C)c1ccc2cc(C(N)=O)n(C(=O)OCOC(=O)CCC(=O)O)c2c1

>  <score_type>  (59) 
oracle

>  <origin>  (59) 
adg

>  <m_score__min__energy>  (59) 
-7.2800000000000002

>  <m_primary>  (59) 
energy

$$$$
59:0
     RDKit          3D

 49 50  0  0  0  0  0  0  0  0999 V2000
  141.7610  159.6270  135.5050 C   0  0  0  0  0  0  0  0  0  0  0  0
  142.0820  159.3710  134.0990 N   0  0  0  0  0  0  0  0  0  0  0  0
  141.2930  160.0330  133.0500 C   0  0  0  0  0  0  0  0  0  0  0  0
  140.1420  159.1270  132.5930 C   0  0  0  0  0  0  0  0  0  0  0  0
  139.2520  159.8210  131.5610 C   0  0  0  0  0  0  0  0  0  0  0  0
  139.1540  161.1890  131.8520 O   0  0  0  0  0  0  0  0  0  0  0  0
  143.0780  158.3810  133.7540 C   0  0  0  0  0  0  0  0  0  0  0  0
  142.6950  157.0470  133.4730 C   0  0  0  0  0  0  0  0  0  0  0  0
  143.6580  156.0800  133.1490 C   0  0  0  0  0  0  0  0  0  0  0  0
  144.9890  156.4800  133.0840 C   0  0  0  0  0  0  0  0  0  0  0  0
  146.0970  155.7260  132.8210 C   0  0  0  0  0  0  0  0  0  0  0  0
  147.1690  156.6030  132.9250 C   0  0  0  0  0  0  0  0  0  0  0  0
  148.5610  156.1540  132.7430 C   0  0  0  0  0  0  0  0  0  0  0  0
  149.5950  157.0840  132.4220 N   0  0  0  0  0  0  0  0  0  0  0  0
  148.8620  154.9540  132.9840 O   0  0  0  0  0  0  0  0  0  0  0  0
  146.7420  157.8780  133.2020 N   0  0  0  0  0  0  0  0  0  0  0  0
  147.5690  159.0750  133.1920 C   0  0  0  0  0  0  0  0  0  0  0  0
  148.4300  159.2450  134.0960 O   0  0  0  0  0  0  0  0  0  0  0  0
  147.5400  160.0930  132.0720 C   0  0  0  0  0  0  0  0  0  0  0  0
  148.8870  160.1920  131.2990 C   0  0  0  0  0  0  0  0  0  0  0  0
  149.0390  161.6130  130.7260 C   0  0  0  0  0  0  0  0  0  0  0  0
  148.9230  159.1710  130.1390 C   0  0  0  0  0  0  0  0  0  0  0  0
  149.9490  159.9260  132.1860 O   0  0  0  0  0  0  0  0  0  0  0  0
  145.3890  157.7690  133.3230 C   0  0  0  0  0  0  0  0  0  0  0  0
  144.4450  158.7350  133.7040 C   0  0  0  0  0  0  0  0  0  0  0  0
  142.4590  159.0704  136.1477 H   0  0  0  0  0  0  0  0  0  0  0  0
  141.8515  160.7036  135.7116 H   0  0  0  0  0  0  0  0  0  0  0  0
  140.7315  159.2992  135.7116 H   0  0  0  0  0  0  0  0  0  0  0  0
  140.8794  160.9722  133.4461 H   0  0  0  0  0  0  0  0  0  0  0  0
  141.9465  160.2403  132.1898 H   0  0  0  0  0  0  0  0  0  0  0  0
  140.5627  158.2146  132.1451 H   0  0  0  0  0  0  0  0  0  0  0  0
  139.5253  158.8863  133.4715 H   0  0  0  0  0  0  0  0  0  0  0  0
  139.6879  159.6924  130.5593 H   0  0  0  0  0  0  0  0  0  0  0  0
  138.2477  159.3733  131.5923 H   0  0  0  0  0  0  0  0  0  0  0  0
  138.1820  161.3910  131.8970 H   0  0  0  0  0  0  0  0  0  0  0  0
  141.6320  156.7664  133.5092 H   0  0  0  0  0  0  0  0  0  0  0  0
  143.3696  155.0369  132.9522 H   0  0  0  0  0  0  0  0  0  0  0  0
  146.1327  154.6536  132.5787 H   0  0  0  0  0  0  0  0  0  0  0  0
  149.7830  157.9050  133.0370 H   0  0  0  0  0  0  0  0  0  0  0  0
  146.7493  159.8092  131.3619 H   0  0  0  0  0  0  0  0  0  0  0  0
  147.3518  161.0760  132.5284 H   0  0  0  0  0  0  0  0  0  0  0  0
  149.1163  162.3352  131.5521 H   0  0  0  0  0  0  0  0  0  0  0  0
  149.9477  161.6640  130.1082 H   0  0  0  0  0  0  0  0  0  0  0  0
  148.1616  161.8551  130.1082 H   0  0  0  0  0  0  0  0  0  0  0  0
  148.9590  158.1510  130.5493 H   0  0  0  0  0  0  0  0  0  0  0  0
  148.0202  159.2861  129.5211 H   0  0  0  0  0  0  0  0  0  0  0  0
  149.8154  159.3494  129.5211 H   0  0  0  0  0  0  0  0  0  0  0  0
  149.8700  158.9840  132.4960 H   0  0  0  0  0  0  0  0  0  0  0  0
  144.7654  159.7555  133.9606 H   0  0  0  0  0  0  0  0  0  0  0  0
  1  2  1  0
  2  3  1  0
  3  4  1  0
  4  5  1  0
  5  6  1  0
  2  7  1  0
  7  8  2  0
  8  9  1  0
  9 10  2  0
 10 11  1  0
 11 12  2  0
 12 13  1  0
 13 14  1  0
 13 15  2  0
 12 16  1  0
 16 17  1  0
 17 18  2  0
 17 19  1  0
 19 20  1  0
 20 21  1  0
 20 22  1  0
 20 23  1  0
 16 24  1  0
 24 25  2  0
 25  7  1  0
 24 10  1  0
  1 26  1  0
  1 27  1  0
  1 28  1  0
  3 29  1  0
  3 30  1  0
  4 31  1  0
  4 32  1  0
  5 33  1  0
  5 34  1  0
  6 35  1  0
  8 36  1  0
  9 37  1  0
 11 38  1  0
 14 39  1  0
 19 40  1  0
 19 41  1  0
 21 42  1  0
 21 43  1  0
 21 44  1  0
 22 45  1  0
 22 46  1  0
 22 47  1  0
 23 48  1  0
 25 49  1  0
M  CHG  1  14  -1
M  END
>  <UniqueID>  (60) 
60

>  <SMILES>  (60) 
CN(CCCO)c1ccc2cc(C([NH-])=O)n(C(=O)CC(C)(C)O)c2c1

>  <Energy>  (60) 
91.25790664227236

>  <Genealogy>  (60) 
CN(CCCO)c1ccc2cc(C([NH-])=O)n(C(=O)CC(C)(C)O)c2c1 (protonated)
CN(CCCO)c1ccc2cc(C([NH-])=O)n(C(=O)CC(C)(C)O)c2c1 (3D coordinates assigned)
CN(CCCO)c1ccc2cc(C([NH-])=O)n(C(=O)CC(C)(C)O)c2c1 (optimized conformer: 91.25790664227236 kcal/mol)

>  <smiles>  (60) 
CN(CCCO)c1ccc2cc(C(N)=O)n(C(=O)CC(C)(C)O)c2c1

>  <score_type>  (60) 
oracle

>  <origin>  (60) 
adg

>  <m_score__min__energy>  (60) 
-7.0899999999999999

>  <m_primary>  (60) 
energy

$$$$
60:0
     RDKit          3D

 30 31  0  0  0  0  0  0  0  0999 V2000
  148.6410  154.0260  132.6040 C   0  0  0  0  0  0  0  0  0  0  0  0
  148.3020  155.1730  132.7490 C   0  0  0  0  0  0  0  0  0  0  0  0
  147.8960  156.5440  132.9210 C   0  0  0  0  0  0  0  0  0  0  0  0
  148.8580  157.5770  132.8590 C   0  0  0  0  0  0  0  0  0  0  0  0
  148.4710  158.9200  133.0090 C   0  0  0  0  0  0  0  0  0  0  0  0
  147.1230  159.1880  133.2310 C   0  0  0  0  0  0  0  0  0  0  0  0
  146.4720  160.3940  133.3610 C   0  0  0  0  0  0  0  0  0  0  0  0
  145.1290  160.0700  133.5310 C   0  0  0  0  0  0  0  0  0  0  0  0
  144.0660  161.0780  133.7250 C   0  0  0  0  0  0  0  0  0  0  0  0
  142.6840  160.7290  133.6300 N   0  0  0  0  0  0  0  0  0  0  0  0
  144.3830  162.2600  134.0250 O   0  0  0  0  0  0  0  0  0  0  0  0
  144.9510  158.7190  133.5040 N   0  0  0  0  0  0  0  0  0  0  0  0
  143.6980  158.0130  133.5130 C   0  0  0  0  0  0  0  0  0  0  0  0
  143.0640  157.8660  132.4320 O   0  0  0  0  0  0  0  0  0  0  0  0
  143.0740  157.5700  134.8050 C   0  0  0  0  0  0  0  0  0  0  0  0
  141.4090  158.2790  135.0140 P   0  0  0  0  0  0  0  0  0  0  0  0
  140.7090  158.3130  133.6750 O   0  0  0  0  0  0  0  0  0  0  0  0
  141.5130  159.8500  135.6300 O   0  0  0  0  0  0  0  0  0  0  0  0
  140.5160  157.3190  136.0830 O   0  0  0  0  0  0  0  0  0  0  0  0
  146.1820  158.1920  133.3140 C   0  0  0  0  0  0  0  0  0  0  0  0
  146.5380  156.8490  133.1420 C   0  0  0  0  0  0  0  0  0  0  0  0
  148.9505  152.9788  132.4716 H   0  0  0  0  0  0  0  0  0  0  0  0
  149.9166  157.3287  132.6923 H   0  0  0  0  0  0  0  0  0  0  0  0
  149.2096  159.7332  132.9528 H   0  0  0  0  0  0  0  0  0  0  0  0
  146.9180  161.3992  133.3359 H   0  0  0  0  0  0  0  0  0  0  0  0
  142.3810  159.7320  133.5760 H   0  0  0  0  0  0  0  0  0  0  0  0
  141.9510  161.4670  133.7160 H   0  0  0  0  0  0  0  0  0  0  0  0
  142.9991  156.4726  134.8089 H   0  0  0  0  0  0  0  0  0  0  0  0
  143.7068  157.9201  135.6339 H   0  0  0  0  0  0  0  0  0  0  0  0
  145.7788  156.0539  133.1783 H   0  0  0  0  0  0  0  0  0  0  0  0
  1  2  3  0
  2  3  1  0
  3  4  2  0
  4  5  1  0
  5  6  2  0
  6  7  1  0
  7  8  2  0
  8  9  1  0
  9 10  1  0
  9 11  2  0
  8 12  1  0
 12 13  1  0
 13 14  2  0
 13 15  1  0
 15 16  1  0
 16 17  2  0
 16 18  1  0
 16 19  1  0
 12 20  1  0
 20 21  2  0
 21  3  1  0
 20  6  1  0
  1 22  1  0
  4 23  1  0
  5 24  1  0
  7 25  1  0
 10 26  1  0
 10 27  1  0
 15 28  1  0
 15 29  1  0
 21 30  1  0
M  CHG  2  18  -1  19  -1
M  END
>  <UniqueID>  (61) 
61

>  <SMILES>  (61) 
C#Cc1ccc2cc(C(N)=O)n(C(=O)CP(=O)([O-])[O-])c2c1

>  <Energy>  (61) 
65.04996073572364

>  <Genealogy>  (61) 
C#Cc1ccc2cc(C(N)=O)n(C(=O)CP(=O)([O-])[O-])c2c1 (protonated)
C#Cc1ccc2cc(C(N)=O)n(C(=O)CP(=O)([O-])[O-])c2c1 (3D coordinates assigned)
C#Cc1ccc2cc(C(N)=O)n(C(=O)CP(=O)([O-])[O-])c2c1 (optimized conformer: 65.04996073572364 kcal/mol)

>  <smiles>  (61) 
C#Cc1ccc2cc(C(N)=O)n(C(=O)CP(=O)(O)O)c2c1

>  <score_type>  (61) 
oracle

>  <origin>  (61) 
adg

>  <m_score__min__energy>  (61) 
-6.9000000000000004

>  <m_primary>  (61) 
energy

$$$$
61:0
     RDKit          3D

 41 42  0  0  0  0  0  0  0  0999 V2000
  148.5380  160.8360  130.6540 C   0  0  0  0  0  0  0  0  0  0  0  0
  148.1650  160.5360  131.9810 O   0  0  0  0  0  0  0  0  0  0  0  0
  149.1250  159.6870  132.5830 C   0  0  0  0  0  0  0  0  0  0  0  0
  148.4590  158.8050  133.6420 C   0  0  0  0  0  0  0  0  0  0  0  0
  148.4850  157.3700  133.2220 C   0  0  0  0  0  0  0  0  0  0  0  0
  149.2340  157.0070  132.2740 O   0  0  0  0  0  0  0  0  0  0  0  0
  147.6380  156.4550  133.8560 O   0  0  0  0  0  0  0  0  0  0  0  0
  146.2460  156.3630  133.5770 C   0  0  0  0  0  0  0  0  0  0  0  0
  145.5670  157.4890  134.1250 O   0  0  0  0  0  0  0  0  0  0  0  0
  145.0670  158.5260  133.3310 C   0  0  0  0  0  0  0  0  0  0  0  0
  145.7630  159.0040  132.3930 O   0  0  0  0  0  0  0  0  0  0  0  0
  143.7660  159.0710  133.6040 N   0  0  0  0  0  0  0  0  0  0  0  0
  143.4240  160.3830  133.7310 C   0  0  0  0  0  0  0  0  0  0  0  0
  144.3650  161.5210  133.7760 C   0  0  0  0  0  0  0  0  0  0  0  0
  145.7690  161.2800  133.8360 N   0  0  0  0  0  0  0  0  0  0  0  0
  143.9430  162.7060  133.7190 O   0  0  0  0  0  0  0  0  0  0  0  0
  142.0480  160.5150  133.9110 C   0  0  0  0  0  0  0  0  0  0  0  0
  141.5550  159.2290  133.8990 C   0  0  0  0  0  0  0  0  0  0  0  0
  140.2470  158.7710  134.0180 C   0  0  0  0  0  0  0  0  0  0  0  0
  140.0240  157.3870  133.9340 C   0  0  0  0  0  0  0  0  0  0  0  0
  141.1040  156.4870  133.7440 C   0  0  0  0  0  0  0  0  0  0  0  0
  140.8380  155.0110  133.5890 C   0  0  0  0  0  0  0  0  0  0  0  0
  141.0050  154.3590  134.8000 F   0  0  0  0  0  0  0  0  0  0  0  0
  139.5400  154.8250  133.1530 F   0  0  0  0  0  0  0  0  0  0  0  0
  141.7070  154.4470  132.6720 F   0  0  0  0  0  0  0  0  0  0  0  0
  142.4170  156.9940  133.6070 C   0  0  0  0  0  0  0  0  0  0  0  0
  142.6120  158.3760  133.7110 C   0  0  0  0  0  0  0  0  0  0  0  0
  149.3951  161.5254  130.6610 H   0  0  0  0  0  0  0  0  0  0  0  0
  148.8177  159.9084  130.1331 H   0  0  0  0  0  0  0  0  0  0  0  0
  147.6920  161.3081  130.1331 H   0  0  0  0  0  0  0  0  0  0  0  0
  149.5800  159.0482  131.8116 H   0  0  0  0  0  0  0  0  0  0  0  0
  149.8988  160.3035  133.0637 H   0  0  0  0  0  0  0  0  0  0  0  0
  148.9988  158.9130  134.5943 H   0  0  0  0  0  0  0  0  0  0  0  0
  147.4122  159.1215  133.7607 H   0  0  0  0  0  0  0  0  0  0  0  0
  146.0929  156.3391  132.4880 H   0  0  0  0  0  0  0  0  0  0  0  0
  145.8458  155.4433  134.0286 H   0  0  0  0  0  0  0  0  0  0  0  0
  146.3030  161.0130  132.9800 H   0  0  0  0  0  0  0  0  0  0  0  0
  141.4777  161.4473  134.0359 H   0  0  0  0  0  0  0  0  0  0  0  0
  139.4130  159.4713  134.1731 H   0  0  0  0  0  0  0  0  0  0  0  0
  138.9992  156.9959  134.0166 H   0  0  0  0  0  0  0  0  0  0  0  0
  143.2651  156.3181  133.4230 H   0  0  0  0  0  0  0  0  0  0  0  0
  1  2  1  0
  2  3  1  0
  3  4  1  0
  4  5  1  0
  5  6  2  0
  5  7  1  0
  7  8  1  0
  8  9  1  0
  9 10  1  0
 10 11  2  0
 10 12  1  0
 12 13  1  0
 13 14  1  0
 14 15  1  0
 14 16  2  0
 13 17  2  0
 17 18  1  0
 18 19  2  0
 19 20  1  0
 20 21  2  0
 21 22  1  0
 22 23  1  0
 22 24  1  0
 22 25  1  0
 21 26  1  0
 26 27  2  0
 27 12  1  0
 27 18  1  0
  1 28  1  0
  1 29  1  0
  1 30  1  0
  3 31  1  0
  3 32  1  0
  4 33  1  0
  4 34  1  0
  8 35  1  0
  8 36  1  0
 15 37  1  0
 17 38  1  0
 19 39  1  0
 20 40  1  0
 26 41  1  0
M  CHG  1  15  -1
M  END
>  <UniqueID>  (62) 
62

>  <SMILES>  (62) 
COCCC(=O)OCOC(=O)n1c(C([NH-])=O)cc2ccc(C(F)(F)F)cc21

>  <Energy>  (62) 
75.57147168784871

>  <Genealogy>  (62) 
COCCC(=O)OCOC(=O)n1c(C([NH-])=O)cc2ccc(C(F)(F)F)cc21 (protonated)
COCCC(=O)OCOC(=O)n1c(C([NH-])=O)cc2ccc(C(F)(F)F)cc21 (3D coordinates assigned)
COCCC(=O)OCOC(=O)n1c(C([NH-])=O)cc2ccc(C(F)(F)F)cc21 (optimized conformer: 75.57147168784871 kcal/mol)

>  <smiles>  (62) 
COCCC(=O)OCOC(=O)n1c(C(N)=O)cc2ccc(C(F)(F)F)cc21

>  <score_type>  (62) 
oracle

>  <origin>  (62) 
adg

>  <m_score__min__energy>  (62) 
-5.4800000000000004

>  <m_primary>  (62) 
energy

$$$$
62:0
     RDKit          3D

 43 45  0  0  0  0  0  0  0  0999 V2000
  143.3030  161.7580  133.7240 N   0  0  0  0  0  0  0  0  0  0  0  0
  144.7190  161.7560  133.8960 C   0  0  0  0  0  0  0  0  0  0  0  0
  145.3020  162.8230  134.2230 O   0  0  0  0  0  0  0  0  0  0  0  0
  145.4760  160.4990  133.7320 C   0  0  0  0  0  0  0  0  0  0  0  0
  146.8540  160.4520  133.5300 C   0  0  0  0  0  0  0  0  0  0  0  0
  147.1510  159.1210  133.3420 C   0  0  0  0  0  0  0  0  0  0  0  0
  148.3730  158.5010  133.1130 C   0  0  0  0  0  0  0  0  0  0  0  0
  148.3900  157.1020  132.9870 C   0  0  0  0  0  0  0  0  0  0  0  0
  147.1940  156.3450  133.1000 C   0  0  0  0  0  0  0  0  0  0  0  0
  147.2230  154.9060  132.9850 N   0  0  0  0  0  0  0  0  0  0  0  0
  146.0220  154.1650  132.5810 C   0  0  0  0  0  0  0  0  0  0  0  0
  146.0900  152.7210  133.0880 C   0  0  0  0  0  0  0  0  0  0  0  0
  147.2970  152.0170  132.6160 N   0  0  0  0  0  0  0  0  0  0  0  0
  148.5010  152.8630  132.4830 C   0  0  0  0  0  0  0  0  0  0  0  0
  148.4400  154.1520  133.3140 C   0  0  0  0  0  0  0  0  0  0  0  0
  145.9690  157.0180  133.3350 C   0  0  0  0  0  0  0  0  0  0  0  0
  145.9800  158.4130  133.4380 C   0  0  0  0  0  0  0  0  0  0  0  0
  144.9430  159.2450  133.6780 N   0  0  0  0  0  0  0  0  0  0  0  0
  143.5790  158.8600  133.9130 C   0  0  0  0  0  0  0  0  0  0  0  0
  143.0510  159.0750  135.0380 O   0  0  0  0  0  0  0  0  0  0  0  0
  142.8390  158.2670  132.8850 O   0  0  0  0  0  0  0  0  0  0  0  0
  141.4680  157.8960  133.0170 C   0  0  0  0  0  0  0  0  0  0  0  0
  140.5480  159.0540  132.6240 C   0  0  0  0  0  0  0  0  0  0  0  0
  140.9410  160.2350  133.2680 O   0  0  0  0  0  0  0  0  0  0  0  0
  142.7120  160.9980  134.1290 H   0  0  0  0  0  0  0  0  0  0  0  0
  147.5558  161.2990  133.5224 H   0  0  0  0  0  0  0  0  0  0  0  0
  149.2997  159.0882  133.0328 H   0  0  0  0  0  0  0  0  0  0  0  0
  149.3429  156.5859  132.7982 H   0  0  0  0  0  0  0  0  0  0  0  0
  145.1335  154.6563  133.0042 H   0  0  0  0  0  0  0  0  0  0  0  0
  145.9613  154.1552  131.4827 H   0  0  0  0  0  0  0  0  0  0  0  0
  146.0948  152.7324  134.1879 H   0  0  0  0  0  0  0  0  0  0  0  0
  145.2133  152.1853  132.6950 H   0  0  0  0  0  0  0  0  0  0  0  0
  147.5020  151.2430  133.2900 H   0  0  0  0  0  0  0  0  0  0  0  0
  149.3742  152.2793  132.8099 H   0  0  0  0  0  0  0  0  0  0  0  0
  148.5702  153.1626  131.4268 H   0  0  0  0  0  0  0  0  0  0  0  0
  148.4314  153.8955  134.3836 H   0  0  0  0  0  0  0  0  0  0  0  0
  149.3204  154.7706  133.0852 H   0  0  0  0  0  0  0  0  0  0  0  0
  145.0292  156.4551  133.4343 H   0  0  0  0  0  0  0  0  0  0  0  0
  141.2633  157.0356  132.3629 H   0  0  0  0  0  0  0  0  0  0  0  0
  141.2745  157.6348  134.0679 H   0  0  0  0  0  0  0  0  0  0  0  0
  140.5977  159.2020  131.5351 H   0  0  0  0  0  0  0  0  0  0  0  0
  139.5194  158.8092  132.9276 H   0  0  0  0  0  0  0  0  0  0  0  0
  141.8990  160.1230  133.5070 H   0  0  0  0  0  0  0  0  0  0  0  0
  1  2  1  0
  2  3  2  0
  2  4  1  0
  4  5  2  0
  5  6  1  0
  6  7  2  0
  7  8  1  0
  8  9  2  0
  9 10  1  0
 10 11  1  0
 11 12  1  0
 12 13  1  0
 13 14  1  0
 14 15  1  0
  9 16  1  0
 16 17  2  0
 17 18  1  0
 18 19  1  0
 19 20  2  0
 19 21  1  0
 21 22  1  0
 22 23  1  0
 23 24  1  0
 18  4  1  0
 17  6  1  0
 15 10  1  0
  1 25  1  0
  5 26  1  0
  7 27  1  0
  8 28  1  0
 11 29  1  0
 11 30  1  0
 12 31  1  0
 12 32  1  0
 13 33  1  0
 14 34  1  0
 14 35  1  0
 15 36  1  0
 15 37  1  0
 16 38  1  0
 22 39  1  0
 22 40  1  0
 23 41  1  0
 23 42  1  0
 24 43  1  0
M  CHG  1   1  -1
M  END
>  <UniqueID>  (63) 
63

>  <SMILES>  (63) 
[NH-]C(=O)c1cc2ccc(N3CCNCC3)cc2n1C(=O)OCCO

>  <Energy>  (63) 
86.91965606729859

>  <Genealogy>  (63) 
[NH-]C(=O)c1cc2ccc(N3CCNCC3)cc2n1C(=O)OCCO (protonated)
[NH-]C(=O)c1cc2ccc(N3CCNCC3)cc2n1C(=O)OCCO (3D coordinates assigned)
[NH-]C(=O)c1cc2ccc(N3CCNCC3)cc2n1C(=O)OCCO (nonaromatic ring conformer: 86.91965606729859 kcal/mol)

>  <smiles>  (63) 
NC(=O)c1cc2ccc(N3CCNCC3)cc2n1C(=O)OCCO

>  <score_type>  (63) 
oracle

>  <origin>  (63) 
adg

>  <m_score__min__energy>  (63) 
-6.5300000000000002

>  <m_primary>  (63) 
energy

$$$$
63:0
     RDKit          3D

 43 44  0  0  0  0  0  0  0  0999 V2000
  138.2200  149.2350  131.0810 C   0  0  0  0  0  0  0  0  0  0  0  0
  139.5890  149.6650  131.5080 C   0  0  0  0  0  0  0  0  0  0  0  0
  140.6200  148.7030  131.6150 C   0  0  0  0  0  0  0  0  0  0  0  0
  141.8990  149.0740  132.0680 C   0  0  0  0  0  0  0  0  0  0  0  0
  142.1060  150.4040  132.4200 C   0  0  0  0  0  0  0  0  0  0  0  0
  143.2200  151.0210  132.9380 C   0  0  0  0  0  0  0  0  0  0  0  0
  142.8460  152.3460  133.1500 C   0  0  0  0  0  0  0  0  0  0  0  0
  143.7670  153.3900  133.6450 C   0  0  0  0  0  0  0  0  0  0  0  0
  143.8650  154.6480  132.9910 N   0  0  0  0  0  0  0  0  0  0  0  0
  144.5130  153.1490  134.6290 O   0  0  0  0  0  0  0  0  0  0  0  0
  141.5530  152.5410  132.7770 N   0  0  0  0  0  0  0  0  0  0  0  0
  140.7520  153.7140  132.9770 C   0  0  0  0  0  0  0  0  0  0  0  0
  139.4930  153.6330  132.9390 O   0  0  0  0  0  0  0  0  0  0  0  0
  141.3720  154.9330  133.2690 O   0  0  0  0  0  0  0  0  0  0  0  0
  140.7850  155.9320  134.1020 C   0  0  0  0  0  0  0  0  0  0  0  0
  141.2480  155.7720  135.5190 C   0  0  0  0  0  0  0  0  0  0  0  0
  140.6300  156.3620  136.4440 O   0  0  0  0  0  0  0  0  0  0  0  0
  142.3920  154.9610  135.8140 N   0  0  0  0  0  0  0  0  0  0  0  0
  142.7600  154.6320  137.1910 C   0  0  0  0  0  0  0  0  0  0  0  0
  142.6170  153.1320  137.4650 C   0  0  0  0  0  0  0  0  0  0  0  0
  141.2320  152.7900  138.0250 C   0  0  0  0  0  0  0  0  0  0  0  0
  140.7870  151.4390  137.5730 C   0  0  0  0  0  0  0  0  0  0  0  0
  140.9450  151.0890  136.3770 O   0  0  0  0  0  0  0  0  0  0  0  0
  140.2280  150.5490  138.4810 O   0  0  0  0  0  0  0  0  0  0  0  0
  141.1130  151.3450  132.3270 C   0  0  0  0  0  0  0  0  0  0  0  0
  139.8330  151.0060  131.8750 C   0  0  0  0  0  0  0  0  0  0  0  0
  137.6025  149.0411  131.9704 H   0  0  0  0  0  0  0  0  0  0  0  0
  137.7567  150.0309  130.4794 H   0  0  0  0  0  0  0  0  0  0  0  0
  138.2949  148.3171  130.4794 H   0  0  0  0  0  0  0  0  0  0  0  0
  140.4202  147.6564  131.3419 H   0  0  0  0  0  0  0  0  0  0  0  0
  142.7106  148.3352  132.1417 H   0  0  0  0  0  0  0  0  0  0  0  0
  144.1999  150.5647  133.1420 H   0  0  0  0  0  0  0  0  0  0  0  0
  143.1800  154.9240  132.2540 H   0  0  0  0  0  0  0  0  0  0  0  0
  141.0780  156.9269  133.7355 H   0  0  0  0  0  0  0  0  0  0  0  0
  139.6908  155.8236  134.0707 H   0  0  0  0  0  0  0  0  0  0  0  0
  142.9410  154.5630  135.0200 H   0  0  0  0  0  0  0  0  0  0  0  0
  143.8051  154.9291  137.3628 H   0  0  0  0  0  0  0  0  0  0  0  0
  142.0836  155.1735  137.8687 H   0  0  0  0  0  0  0  0  0  0  0  0
  142.7677  152.5815  136.5247 H   0  0  0  0  0  0  0  0  0  0  0  0
  143.3708  152.8457  138.2132 H   0  0  0  0  0  0  0  0  0  0  0  0
  141.2755  152.8046  139.1240 H   0  0  0  0  0  0  0  0  0  0  0  0
  140.5126  153.5358  137.6560 H   0  0  0  0  0  0  0  0  0  0  0  0
  139.0385  151.7638  131.8075 H   0  0  0  0  0  0  0  0  0  0  0  0
  1  2  1  0
  2  3  2  0
  3  4  1  0
  4  5  2  0
  5  6  1  0
  6  7  2  0
  7  8  1  0
  8  9  1  0
  8 10  2  0
  7 11  1  0
 11 12  1  0
 12 13  2  0
 12 14  1  0
 14 15  1  0
 15 16  1  0
 16 17  2  0
 16 18  1  0
 18 19  1  0
 19 20  1  0
 20 21  1  0
 21 22  1  0
 22 23  2  0
 22 24  1  0
 11 25  1  0
 25 26  2  0
 26  2  1  0
 25  5  1  0
  1 27  1  0
  1 28  1  0
  1 29  1  0
  3 30  1  0
  4 31  1  0
  6 32  1  0
  9 33  1  0
 15 34  1  0
 15 35  1  0
 18 36  1  0
 19 37  1  0
 19 38  1  0
 20 39  1  0
 20 40  1  0
 21 41  1  0
 21 42  1  0
 26 43  1  0
M  CHG  2   9  -1  24  -1
M  END
>  <UniqueID>  (64) 
64

>  <SMILES>  (64) 
Cc1ccc2cc(C([NH-])=O)n(C(=O)OCC(=O)NCCCC(=O)[O-])c2c1

>  <Energy>  (64) 
69.21172727072789

>  <Genealogy>  (64) 
Cc1ccc2cc(C([NH-])=O)n(C(=O)OCC(=O)NCCCC(=O)[O-])c2c1 (protonated)
Cc1ccc2cc(C([NH-])=O)n(C(=O)OCC(=O)NCCCC(=O)[O-])c2c1 (3D coordinates assigned)
Cc1ccc2cc(C([NH-])=O)n(C(=O)OCC(=O)NCCCC(=O)[O-])c2c1 (optimized conformer: 69.21172727072789 kcal/mol)

>  <smiles>  (64) 
Cc1ccc2cc(C(N)=O)n(C(=O)OCC(=O)NCCCC(=O)O)c2c1

>  <score_type>  (64) 
oracle

>  <origin>  (64) 
adg

>  <m_score__min__energy>  (64) 
-7.5899999999999999

>  <m_primary>  (64) 
energy

$$$$
64:0
     RDKit          3D

 43 45  0  0  0  0  0  0  0  0999 V2000
  148.5120  159.2740  133.2990 C   0  0  0  0  0  0  0  0  0  0  0  0
  148.1570  157.9800  133.3120 C   0  0  0  0  0  0  0  0  0  0  0  0
  146.9730  157.5340  134.1410 C   0  0  0  0  0  0  0  0  0  0  0  0
  146.3360  156.3650  133.5220 N   0  0  0  0  0  0  0  0  0  0  0  0
  144.9050  156.2240  133.5540 C   0  0  0  0  0  0  0  0  0  0  0  0
  144.3000  155.0260  133.1020 C   0  0  0  0  0  0  0  0  0  0  0  0
  142.9040  154.8760  133.1210 C   0  0  0  0  0  0  0  0  0  0  0  0
  142.1410  155.9340  133.6070 C   0  0  0  0  0  0  0  0  0  0  0  0
  140.7750  156.0650  133.7130 C   0  0  0  0  0  0  0  0  0  0  0  0
  140.5670  157.3330  134.2520 C   0  0  0  0  0  0  0  0  0  0  0  0
  139.2320  157.8570  134.6110 C   0  0  0  0  0  0  0  0  0  0  0  0
  138.9480  158.2010  135.9650 N   0  0  0  0  0  0  0  0  0  0  0  0
  138.3520  158.0370  133.7300 O   0  0  0  0  0  0  0  0  0  0  0  0
  141.7570  157.9640  134.4650 N   0  0  0  0  0  0  0  0  0  0  0  0
  141.9690  159.3040  134.9350 C   0  0  0  0  0  0  0  0  0  0  0  0
  141.0110  159.9520  135.4410 O   0  0  0  0  0  0  0  0  0  0  0  0
  143.2430  159.8770  134.8510 O   0  0  0  0  0  0  0  0  0  0  0  0
  143.6480  160.7340  133.7870 C   0  0  0  0  0  0  0  0  0  0  0  0
  145.0860  160.5010  133.4500 C   0  0  0  0  0  0  0  0  0  0  0  0
  145.4030  159.6100  132.6200 O   0  0  0  0  0  0  0  0  0  0  0  0
  146.0780  161.2480  134.0720 O   0  0  0  0  0  0  0  0  0  0  0  0
  142.7100  157.0920  134.0670 C   0  0  0  0  0  0  0  0  0  0  0  0
  144.0980  157.2760  134.0420 C   0  0  0  0  0  0  0  0  0  0  0  0
  147.1470  155.3140  132.8900 C   0  0  0  0  0  0  0  0  0  0  0  0
  148.6450  155.6390  132.9650 C   0  0  0  0  0  0  0  0  0  0  0  0
  148.9140  157.0180  132.5370 N   0  0  0  0  0  0  0  0  0  0  0  0
  149.3724  159.6023  132.6974 H   0  0  0  0  0  0  0  0  0  0  0  0
  147.9426  160.0065  133.8899 H   0  0  0  0  0  0  0  0  0  0  0  0
  147.3159  157.2689  135.1520 H   0  0  0  0  0  0  0  0  0  0  0  0
  146.2428  158.3547  134.1969 H   0  0  0  0  0  0  0  0  0  0  0  0
  144.9305  154.2041  132.7320 H   0  0  0  0  0  0  0  0  0  0  0  0
  142.4281  153.9512  132.7630 H   0  0  0  0  0  0  0  0  0  0  0  0
  140.0102  155.3260  133.4320 H   0  0  0  0  0  0  0  0  0  0  0  0
  139.2240  159.1320  136.3510 H   0  0  0  0  0  0  0  0  0  0  0  0
  143.0299  160.5285  132.9006 H   0  0  0  0  0  0  0  0  0  0  0  0
  143.5199  161.7800  134.1023 H   0  0  0  0  0  0  0  0  0  0  0  0
  144.5486  158.2159  134.3935 H   0  0  0  0  0  0  0  0  0  0  0  0
  146.9617  154.3604  133.4061 H   0  0  0  0  0  0  0  0  0  0  0  0
  146.8607  155.2472  131.8300 H   0  0  0  0  0  0  0  0  0  0  0  0
  148.9876  155.5126  134.0026 H   0  0  0  0  0  0  0  0  0  0  0  0
  149.1827  154.9553  132.2916 H   0  0  0  0  0  0  0  0  0  0  0  0
  148.6720  157.1290  131.5250 H   0  0  0  0  0  0  0  0  0  0  0  0
  149.9380  157.1980  132.6610 H   0  0  0  0  0  0  0  0  0  0  0  0
  1  2  2  0
  2  3  1  0
  3  4  1  0
  4  5  1  0
  5  6  2  0
  6  7  1  0
  7  8  2  0
  8  9  1  0
  9 10  2  0
 10 11  1  0
 11 12  1  0
 11 13  2  0
 10 14  1  0
 14 15  1  0
 15 16  2  0
 15 17  1  0
 17 18  1  0
 18 19  1  0
 19 20  2  0
 19 21  1  0
 14 22  1  0
 22 23  2  0
  4 24  1  0
 24 25  1  0
 25 26  1  0
 26  2  1  0
 23  5  1  0
 22  8  1  0
  1 27  1  0
  1 28  1  0
  3 29  1  0
  3 30  1  0
  6 31  1  0
  7 32  1  0
  9 33  1  0
 12 34  1  0
 18 35  1  0
 18 36  1  0
 23 37  1  0
 24 38  1  0
 24 39  1  0
 25 40  1  0
 25 41  1  0
 26 42  1  0
 26 43  1  0
M  CHG  3  12  -1  21  -1  26   1
M  END
>  <UniqueID>  (65) 
65

>  <SMILES>  (65) 
C=C1CN(c2ccc3cc(C([NH-])=O)n(C(=O)OCC(=O)[O-])c3c2)CC[NH2+]1

>  <Energy>  (65) 
86.58315779826741

>  <Genealogy>  (65) 
C=C1CN(c2ccc3cc(C([NH-])=O)n(C(=O)OCC(=O)[O-])c3c2)CC[NH2+]1 (protonated)
C=C1CN(c2ccc3cc(C([NH-])=O)n(C(=O)OCC(=O)[O-])c3c2)CC[NH2+]1 (3D coordinates assigned)
C=C1CN(c2ccc3cc(C([NH-])=O)n(C(=O)OCC(=O)[O-])c3c2)CC[NH2+]1 (nonaromatic ring conformer: 86.58315779826741 kcal/mol)

>  <smiles>  (65) 
C=C1CN(c2ccc3cc(C(N)=O)n(C(=O)OCC(=O)O)c3c2)CCN1

>  <score_type>  (65) 
oracle

>  <origin>  (65) 
adg

>  <m_score__min__energy>  (65) 
-7.2999999999999998

>  <m_primary>  (65) 
energy

$$$$
65:0
     RDKit          3D

 58 61  0  0  0  0  0  0  0  0999 V2000
  140.3610  155.6130  138.5390 C   0  0  0  0  0  0  0  0  0  0  0  0
  141.0420  156.6970  137.6830 C   0  0  0  0  0  0  0  0  0  0  0  0
  141.7340  157.7430  138.5780 C   0  0  0  0  0  0  0  0  0  0  0  0
  142.0990  156.0340  136.7870 C   0  0  0  0  0  0  0  0  0  0  0  0
  140.0900  157.3300  136.8160 O   0  0  0  0  0  0  0  0  0  0  0  0
  140.2640  158.5440  136.1370 C   0  0  0  0  0  0  0  0  0  0  0  0
  140.7230  159.5600  136.7260 O   0  0  0  0  0  0  0  0  0  0  0  0
  139.9330  158.6220  134.7430 N   0  0  0  0  0  0  0  0  0  0  0  0
  140.7570  159.2670  133.7390 C   0  0  2  0  0  0  0  0  0  0  0  0
  139.7840  159.4490  132.5670 C   0  0  0  0  0  0  0  0  0  0  0  0
  138.7500  158.3310  132.7460 C   0  0  0  0  0  0  0  0  0  0  0  0
  139.1780  157.6080  134.0320 C   0  0  1  0  0  0  0  0  0  0  0  0
  140.1330  156.4210  133.7140 C   0  0  0  0  0  0  0  0  0  0  0  0
  141.6420  156.8190  133.7780 C   0  0  1  0  0  0  0  0  0  0  0  0
  142.4530  155.8820  132.9870 N   0  0  0  0  0  0  0  0  0  0  0  0
  143.8790  155.7200  133.1290 C   0  0  0  0  0  0  0  0  0  0  0  0
  144.7240  156.7900  133.5330 C   0  0  0  0  0  0  0  0  0  0  0  0
  146.1120  156.6070  133.6450 C   0  0  0  0  0  0  0  0  0  0  0  0
  146.6320  155.3510  133.3530 C   0  0  0  0  0  0  0  0  0  0  0  0
  147.9360  154.9130  133.3560 C   0  0  0  0  0  0  0  0  0  0  0  0
  147.8760  153.5750  132.9700 C   0  0  0  0  0  0  0  0  0  0  0  0
  149.0520  152.6780  132.9240 C   0  0  0  0  0  0  0  0  0  0  0  0
  148.9230  151.2890  133.2400 N   0  0  0  0  0  0  0  0  0  0  0  0
  150.1760  153.1240  132.5740 O   0  0  0  0  0  0  0  0  0  0  0  0
  146.5850  153.2030  132.7350 N   0  0  0  0  0  0  0  0  0  0  0  0
  146.1100  151.9310  132.2640 C   0  0  0  0  0  0  0  0  0  0  0  0
  144.8970  151.6170  132.3930 O   0  0  0  0  0  0  0  0  0  0  0  0
  146.9850  151.0270  131.6750 O   0  0  0  0  0  0  0  0  0  0  0  0
  145.8360  154.3030  132.9740 C   0  0  0  0  0  0  0  0  0  0  0  0
  144.4520  154.4610  132.8340 C   0  0  0  0  0  0  0  0  0  0  0  0
  141.9130  158.2980  133.3480 C   0  0  0  0  0  0  0  0  0  0  0  0
  140.5055  155.8430  139.6049 H   0  0  0  0  0  0  0  0  0  0  0  0
  139.2850  155.5886  138.3118 H   0  0  0  0  0  0  0  0  0  0  0  0
  140.8060  154.6331  138.3118 H   0  0  0  0  0  0  0  0  0  0  0  0
  141.5663  157.4895  139.6352 H   0  0  0  0  0  0  0  0  0  0  0  0
  142.8139  157.7476  138.3689 H   0  0  0  0  0  0  0  0  0  0  0  0
  141.3158  158.7387  138.3689 H   0  0  0  0  0  0  0  0  0  0  0  0
  142.8638  155.5543  137.4155 H   0  0  0  0  0  0  0  0  0  0  0  0
  141.6178  155.2756  136.1519 H   0  0  0  0  0  0  0  0  0  0  0  0
  142.5723  156.7973  136.1519 H   0  0  0  0  0  0  0  0  0  0  0  0
  141.2167  160.2131  134.0609 H   0  0  0  0  0  0  0  0  0  0  0  0
  139.3007  160.4361  132.6132 H   0  0  0  0  0  0  0  0  0  0  0  0
  140.2906  159.3966  131.5920 H   0  0  0  0  0  0  0  0  0  0  0  0
  137.7392  158.7510  132.8549 H   0  0  0  0  0  0  0  0  0  0  0  0
  138.7140  157.6541  131.8797 H   0  0  0  0  0  0  0  0  0  0  0  0
  138.3195  157.1995  134.5852 H   0  0  0  0  0  0  0  0  0  0  0  0
  139.9506  155.6188  134.4442 H   0  0  0  0  0  0  0  0  0  0  0  0
  139.9217  156.0947  132.6850 H   0  0  0  0  0  0  0  0  0  0  0  0
  141.9404  156.7527  134.8347 H   0  0  0  0  0  0  0  0  0  0  0  0
  141.9660  155.2620  132.3010 H   0  0  0  0  0  0  0  0  0  0  0  0
  144.2853  157.7727  133.7605 H   0  0  0  0  0  0  0  0  0  0  0  0
  146.7686  157.4334  133.9548 H   0  0  0  0  0  0  0  0  0  0  0  0
  148.8346  155.4947  133.6091 H   0  0  0  0  0  0  0  0  0  0  0  0
  148.0210  150.8930  133.5860 H   0  0  0  0  0  0  0  0  0  0  0  0
  149.7490  150.6570  133.1660 H   0  0  0  0  0  0  0  0  0  0  0  0
  143.8226  153.6225  132.5011 H   0  0  0  0  0  0  0  0  0  0  0  0
  142.8377  158.6409  133.8351 H   0  0  0  0  0  0  0  0  0  0  0  0
  141.9973  158.3118  132.2513 H   0  0  0  0  0  0  0  0  0  0  0  0
  1  2  1  0
  2  3  1  0
  2  4  1  0
  2  5  1  0
  5  6  1  0
  6  7  2  0
  6  8  1  0
  8  9  1  0
  9 10  1  0
 10 11  1  0
 11 12  1  0
 12 13  1  0
 13 14  1  0
 14 15  1  0
 15 16  1  0
 16 17  2  0
 17 18  1  0
 18 19  2  0
 19 20  1  0
 20 21  2  0
 21 22  1  0
 22 23  1  0
 22 24  2  0
 21 25  1  0
 25 26  1  0
 26 27  2  0
 26 28  1  0
 25 29  1  0
 29 30  2  0
 14 31  1  0
 12  8  1  0
 30 16  1  0
 31  9  1  0
 29 19  1  0
  1 32  1  0
  1 33  1  0
  1 34  1  0
  3 35  1  0
  3 36  1  0
  3 37  1  0
  4 38  1  0
  4 39  1  0
  4 40  1  0
  9 41  1  1
 10 42  1  0
 10 43  1  0
 11 44  1  0
 11 45  1  0
 12 46  1  1
 13 47  1  0
 13 48  1  0
 14 49  1  1
 15 50  1  0
 17 51  1  0
 18 52  1  0
 20 53  1  0
 23 54  1  0
 23 55  1  0
 30 56  1  0
 31 57  1  0
 31 58  1  0
M  CHG  1  28  -1
M  END
>  <UniqueID>  (66) 
66

>  <SMILES>  (66) 
CC(C)(C)OC(=O)N1[C@@H]2CC[C@H]1C[C@@H](Nc1ccc3cc(C(N)=O)n(C(=O)[O-])c3c1)C2

>  <Energy>  (66) 
115.76353914536628

>  <Genealogy>  (66) 
CC(C)(C)OC(=O)N1[C@@H]2CC[C@H]1CC(Nc1ccc3cc(C(N)=O)n(C(=O)[O-])c3c1)C2 (protonated)
CC(C)(C)OC(=O)N1[C@@H]2CC[C@H]1C[C@@H](Nc1ccc3cc(C(N)=O)n(C(=O)[O-])c3c1)C2 (chirality)
CC(C)(C)OC(=O)N1[C@@H]2CC[C@H]1C[C@@H](Nc1ccc3cc(C(N)=O)n(C(=O)[O-])c3c1)C2 (3D coordinates assigned)
CC(C)(C)OC(=O)N1[C@@H]2CC[C@H]1C[C@@H](Nc1ccc3cc(C(N)=O)n(C(=O)[O-])c3c1)C2 (nonaromatic ring conformer: 115.76353914536628 kcal/mol)

>  <smiles>  (66) 
CC(C)(C)OC(=O)N1[C@@H]2CC[C@H]1CC(Nc1ccc3cc(C(N)=O)n(C(=O)O)c3c1)C2

>  <score_type>  (66) 
oracle

>  <origin>  (66) 
adg

>  <m_score__min__energy>  (66) 
-9.4499999999999993

>  <m_primary>  (66) 
energy

$$$$
66:0
     RDKit          3D

 36 39  0  0  0  0  0  0  0  0999 V2000
  139.2970  158.2230  136.0150 N   0  0  0  0  0  0  0  0  0  0  0  0
  139.8060  158.3090  134.6870 C   0  0  0  0  0  0  0  0  0  0  0  0
  139.0380  158.0750  133.7150 O   0  0  0  0  0  0  0  0  0  0  0  0
  141.2310  158.6070  134.4370 C   0  0  0  0  0  0  0  0  0  0  0  0
  141.7670  159.8910  134.5060 C   0  0  0  0  0  0  0  0  0  0  0  0
  143.0820  159.7590  134.1220 C   0  0  0  0  0  0  0  0  0  0  0  0
  144.0830  160.7190  134.0130 C   0  0  0  0  0  0  0  0  0  0  0  0
  145.3620  160.2940  133.6170 C   0  0  0  0  0  0  0  0  0  0  0  0
  145.6200  158.9260  133.3540 C   0  0  0  0  0  0  0  0  0  0  0  0
  146.9700  158.4840  132.9440 C   0  0  0  0  0  0  0  0  0  0  0  0
  147.5490  157.3360  133.5290 C   0  0  0  0  0  0  0  0  0  0  0  0
  148.8430  156.9190  133.1630 C   0  0  0  0  0  0  0  0  0  0  0  0
  149.5840  157.6460  132.2200 C   0  0  0  0  0  0  0  0  0  0  0  0
  148.9990  158.7780  131.6600 C   0  0  0  0  0  0  0  0  0  0  0  0
  147.7260  159.1940  131.9960 C   0  0  0  0  0  0  0  0  0  0  0  0
  147.3910  160.4850  131.2890 C   0  0  0  0  0  0  0  0  0  0  0  0
  148.5940  160.7730  130.5060 N   0  0  0  0  0  0  0  0  0  0  0  0
  149.5410  159.7410  130.7360 C   0  0  0  0  0  0  0  0  0  0  0  0
  150.6830  159.7000  130.2090 O   0  0  0  0  0  0  0  0  0  0  0  0
  144.5740  157.9820  133.4640 C   0  0  0  0  0  0  0  0  0  0  0  0
  143.3050  158.4350  133.8420 C   0  0  0  0  0  0  0  0  0  0  0  0
  142.1790  157.7140  134.0350 N   0  0  0  0  0  0  0  0  0  0  0  0
  142.0520  156.2860  133.9320 C   0  0  0  0  0  0  0  0  0  0  0  0
  142.9270  155.5310  134.4340 O   0  0  0  0  0  0  0  0  0  0  0  0
  140.9490  155.7230  133.3030 O   0  0  0  0  0  0  0  0  0  0  0  0
  139.1760  159.0800  136.6010 H   0  0  0  0  0  0  0  0  0  0  0  0
  141.2491  160.8145  134.8042 H   0  0  0  0  0  0  0  0  0  0  0  0
  143.8792  161.7779  134.2302 H   0  0  0  0  0  0  0  0  0  0  0  0
  146.1716  161.0310  133.5100 H   0  0  0  0  0  0  0  0  0  0  0  0
  146.9833  156.7622  134.2779 H   0  0  0  0  0  0  0  0  0  0  0  0
  149.2758  156.0168  133.6198 H   0  0  0  0  0  0  0  0  0  0  0  0
  150.5976  157.3309  131.9315 H   0  0  0  0  0  0  0  0  0  0  0  0
  146.5170  160.3580  130.6332 H   0  0  0  0  0  0  0  0  0  0  0  0
  147.1298  161.2967  131.9839 H   0  0  0  0  0  0  0  0  0  0  0  0
  148.7320  161.5990  129.8830 H   0  0  0  0  0  0  0  0  0  0  0  0
  144.7531  156.9165  133.2574 H   0  0  0  0  0  0  0  0  0  0  0  0
  1  2  1  0
  2  3  2  0
  2  4  1  0
  4  5  2  0
  5  6  1  0
  6  7  2  0
  7  8  1  0
  8  9  2  0
  9 10  1  0
 10 11  2  0
 11 12  1  0
 12 13  2  0
 13 14  1  0
 14 15  2  0
 15 16  1  0
 16 17  1  0
 17 18  1  0
 18 19  2  0
  9 20  1  0
 20 21  2  0
 21 22  1  0
 22 23  1  0
 23 24  2  0
 23 25  1  0
 22  4  1  0
 21  6  1  0
 15 10  1  0
 18 14  1  0
  1 26  1  0
  5 27  1  0
  7 28  1  0
  8 29  1  0
 11 30  1  0
 12 31  1  0
 13 32  1  0
 16 33  1  0
 16 34  1  0
 17 35  1  0
 20 36  1  0
M  CHG  2   1  -1  25  -1
M  END
>  <UniqueID>  (67) 
67

>  <SMILES>  (67) 
[NH-]C(=O)c1cc2ccc(-c3cccc4c3CNC4=O)cc2n1C(=O)[O-]

>  <Energy>  (67) 
107.92974213246329

>  <Genealogy>  (67) 
[NH-]C(=O)c1cc2ccc(-c3cccc4c3CNC4=O)cc2n1C(=O)[O-] (protonated)
[NH-]C(=O)c1cc2ccc(-c3cccc4c3CNC4=O)cc2n1C(=O)[O-] (3D coordinates assigned)
[NH-]C(=O)c1cc2ccc(-c3cccc4c3CNC4=O)cc2n1C(=O)[O-] (nonaromatic ring conformer: 107.92974213246329 kcal/mol)

>  <smiles>  (67) 
NC(=O)c1cc2ccc(-c3cccc4c3CNC4=O)cc2n1C(=O)O

>  <score_type>  (67) 
oracle

>  <origin>  (67) 
adg

>  <m_score__min__energy>  (67) 
-8.4499999999999993

>  <m_primary>  (67) 
energy

$$$$
67:0
     RDKit          3D

 48 49  0  0  0  0  0  0  0  0999 V2000
  141.0130  156.4770  137.0750 C   0  0  0  0  0  0  0  0  0  0  0  0
  140.4860  157.7420  136.5580 N   0  0  0  0  0  0  0  0  0  0  0  0
  139.4400  157.7400  135.5260 C   0  0  0  0  0  0  0  0  0  0  0  0
  140.0270  157.3140  134.1760 C   0  0  0  0  0  0  0  0  0  0  0  0
  140.4120  158.4900  133.3820 N   0  0  0  0  0  0  0  0  0  0  0  0
  139.4000  159.1020  132.5110 C   0  0  0  0  0  0  0  0  0  0  0  0
  141.7400  159.0700  133.4790 C   0  0  0  0  0  0  0  0  0  0  0  0
  141.9120  160.4760  133.6290 C   0  0  0  0  0  0  0  0  0  0  0  0
  143.1930  161.0400  133.7330 C   0  0  0  0  0  0  0  0  0  0  0  0
  144.2900  160.1900  133.6720 C   0  0  0  0  0  0  0  0  0  0  0  0
  145.6330  160.4710  133.7820 C   0  0  0  0  0  0  0  0  0  0  0  0
  146.2750  159.2410  133.6640 C   0  0  0  0  0  0  0  0  0  0  0  0
  147.7440  159.0890  133.6700 C   0  0  0  0  0  0  0  0  0  0  0  0
  148.3550  157.8270  133.9380 N   0  0  0  0  0  0  0  0  0  0  0  0
  148.4700  160.0770  133.3800 O   0  0  0  0  0  0  0  0  0  0  0  0
  145.3680  158.2380  133.5020 N   0  0  0  0  0  0  0  0  0  0  0  0
  145.6320  156.8260  133.4670 C   0  0  0  0  0  0  0  0  0  0  0  0
  144.9710  156.0420  134.2010 O   0  0  0  0  0  0  0  0  0  0  0  0
  146.6210  156.3270  132.6110 O   0  0  0  0  0  0  0  0  0  0  0  0
  147.0040  154.9540  132.5690 C   0  0  0  0  0  0  0  0  0  0  0  0
  148.5030  154.8070  132.8330 C   0  0  0  0  0  0  0  0  0  0  0  0
  149.1610  156.0170  132.5780 O   0  0  0  0  0  0  0  0  0  0  0  0
  144.1550  158.8370  133.5050 C   0  0  0  0  0  0  0  0  0  0  0  0
  142.8900  158.2430  133.4230 C   0  0  0  0  0  0  0  0  0  0  0  0
  140.9930  158.9820  137.0840 C   0  0  0  0  0  0  0  0  0  0  0  0
  140.7450  160.0730  136.5060 O   0  0  0  0  0  0  0  0  0  0  0  0
  141.7680  158.9890  138.2390 O   0  0  0  0  0  0  0  0  0  0  0  0
  141.0042  156.4982  138.1748 H   0  0  0  0  0  0  0  0  0  0  0  0
  140.3862  155.6460  136.7193 H   0  0  0  0  0  0  0  0  0  0  0  0
  142.0444  156.3368  136.7193 H   0  0  0  0  0  0  0  0  0  0  0  0
  138.6460  157.0357  135.8152 H   0  0  0  0  0  0  0  0  0  0  0  0
  139.0269  158.7552  135.4327 H   0  0  0  0  0  0  0  0  0  0  0  0
  140.9154  156.6890  134.3497 H   0  0  0  0  0  0  0  0  0  0  0  0
  139.2641  156.7476  133.6217 H   0  0  0  0  0  0  0  0  0  0  0  0
  138.6211  159.5730  133.1286 H   0  0  0  0  0  0  0  0  0  0  0  0
  139.8753  159.8642  131.8760 H   0  0  0  0  0  0  0  0  0  0  0  0
  138.9457  158.3271  131.8760 H   0  0  0  0  0  0  0  0  0  0  0  0
  141.0278  161.1294  133.6638 H   0  0  0  0  0  0  0  0  0  0  0  0
  143.3246  162.1248  133.8593 H   0  0  0  0  0  0  0  0  0  0  0  0
  146.0992  161.4561  133.9312 H   0  0  0  0  0  0  0  0  0  0  0  0
  147.7850  156.9560  134.0170 H   0  0  0  0  0  0  0  0  0  0  0  0
  149.3960  157.7460  133.9800 H   0  0  0  0  0  0  0  0  0  0  0  0
  146.4452  154.3988  133.3368 H   0  0  0  0  0  0  0  0  0  0  0  0
  146.7779  154.5523  131.5702 H   0  0  0  0  0  0  0  0  0  0  0  0
  148.6605  154.5224  133.8838 H   0  0  0  0  0  0  0  0  0  0  0  0
  148.9097  154.0308  132.1681 H   0  0  0  0  0  0  0  0  0  0  0  0
  148.6460  156.4760  131.8640 H   0  0  0  0  0  0  0  0  0  0  0  0
  142.7900  157.1527  133.3169 H   0  0  0  0  0  0  0  0  0  0  0  0
  1  2  1  0
  2  3  1  0
  3  4  1  0
  4  5  1  0
  5  6  1  0
  5  7  1  0
  7  8  2  0
  8  9  1  0
  9 10  2  0
 10 11  1  0
 11 12  2  0
 12 13  1  0
 13 14  1  0
 13 15  2  0
 12 16  1  0
 16 17  1  0
 17 18  2  0
 17 19  1  0
 19 20  1  0
 20 21  1  0
 21 22  1  0
 16 23  1  0
 23 24  2  0
  2 25  1  0
 25 26  2  0
 25 27  1  0
 24  7  1  0
 23 10  1  0
  1 28  1  0
  1 29  1  0
  1 30  1  0
  3 31  1  0
  3 32  1  0
  4 33  1  0
  4 34  1  0
  6 35  1  0
  6 36  1  0
  6 37  1  0
  8 38  1  0
  9 39  1  0
 11 40  1  0
 14 41  1  0
 14 42  1  0
 20 43  1  0
 20 44  1  0
 21 45  1  0
 21 46  1  0
 22 47  1  0
 24 48  1  0
M  CHG  1  27  -1
M  END
>  <UniqueID>  (68) 
68

>  <SMILES>  (68) 
CN(CCN(C)c1ccc2cc(C(N)=O)n(C(=O)OCCO)c2c1)C(=O)[O-]

>  <Energy>  (68) 
80.55994579401634

>  <Genealogy>  (68) 
CN(CCN(C)c1ccc2cc(C(N)=O)n(C(=O)OCCO)c2c1)C(=O)[O-] (protonated)
CN(CCN(C)c1ccc2cc(C(N)=O)n(C(=O)OCCO)c2c1)C(=O)[O-] (3D coordinates assigned)
CN(CCN(C)c1ccc2cc(C(N)=O)n(C(=O)OCCO)c2c1)C(=O)[O-] (optimized conformer: 80.55994579401634 kcal/mol)

>  <smiles>  (68) 
CN(CCN(C)c1ccc2cc(C(N)=O)n(C(=O)OCCO)c2c1)C(=O)O

>  <score_type>  (68) 
oracle

>  <origin>  (68) 
adg

>  <m_score__min__energy>  (68) 
-6.5

>  <m_primary>  (68) 
energy

$$$$
68:0
     RDKit          3D

 36 37  0  0  0  0  0  0  0  0999 V2000
  139.9830  159.7450  132.3840 N   0  0  0  0  0  0  0  0  0  0  0  0
  139.5260  158.9240  133.0630 C   0  0  0  0  0  0  0  0  0  0  0  0
  138.9470  157.8890  133.9280 C   0  0  0  0  0  0  0  0  0  0  0  0
  139.2220  158.1940  135.3280 N   0  0  0  0  0  0  0  0  0  0  0  0
  140.4740  158.6570  135.8600 C   0  0  0  0  0  0  0  0  0  0  0  0
  140.5800  159.8680  136.1890 O   0  0  0  0  0  0  0  0  0  0  0  0
  141.6750  157.7570  136.0020 C   0  0  0  0  0  0  0  0  0  0  0  0
  142.2110  157.3050  134.6370 C   0  0  0  0  0  0  0  0  0  0  0  0
  143.3210  158.2010  134.1500 C   0  0  0  0  0  0  0  0  0  0  0  0
  143.1360  159.6060  134.1170 C   0  0  0  0  0  0  0  0  0  0  0  0
  144.1860  160.4570  133.7330 C   0  0  0  0  0  0  0  0  0  0  0  0
  145.4020  159.8750  133.3830 C   0  0  0  0  0  0  0  0  0  0  0  0
  146.5880  160.4620  133.0020 C   0  0  0  0  0  0  0  0  0  0  0  0
  147.4690  159.4050  132.7800 C   0  0  0  0  0  0  0  0  0  0  0  0
  148.8430  159.5900  132.2710 C   0  0  0  0  0  0  0  0  0  0  0  0
  149.8640  158.6200  132.5140 N   0  0  0  0  0  0  0  0  0  0  0  0
  149.1080  160.5930  131.5550 O   0  0  0  0  0  0  0  0  0  0  0  0
  146.8590  158.2120  133.0340 N   0  0  0  0  0  0  0  0  0  0  0  0
  147.4550  156.9020  133.0230 C   0  0  0  0  0  0  0  0  0  0  0  0
  148.3160  156.4940  134.0860 N   0  0  0  0  0  0  0  0  0  0  0  0
  147.2230  156.1100  132.0720 O   0  0  0  0  0  0  0  0  0  0  0  0
  145.5930  158.5170  133.3950 C   0  0  0  0  0  0  0  0  0  0  0  0
  144.5700  157.6480  133.7920 C   0  0  0  0  0  0  0  0  0  0  0  0
  137.8590  157.8505  133.7710 H   0  0  0  0  0  0  0  0  0  0  0  0
  139.3962  156.9169  133.6764 H   0  0  0  0  0  0  0  0  0  0  0  0
  142.4685  158.3028  136.5334 H   0  0  0  0  0  0  0  0  0  0  0  0
  141.3680  156.8620  136.5630 H   0  0  0  0  0  0  0  0  0  0  0  0
  142.5951  156.2782  134.7270 H   0  0  0  0  0  0  0  0  0  0  0  0
  141.3862  157.3548  133.9109 H   0  0  0  0  0  0  0  0  0  0  0  0
  142.1614  160.0340  134.3946 H   0  0  0  0  0  0  0  0  0  0  0  0
  144.0519  161.5485  133.7095 H   0  0  0  0  0  0  0  0  0  0  0  0
  146.7959  161.5369  132.8955 H   0  0  0  0  0  0  0  0  0  0  0  0
  150.8320  158.7780  132.1570 H   0  0  0  0  0  0  0  0  0  0  0  0
  149.6490  157.7100  132.9780 H   0  0  0  0  0  0  0  0  0  0  0  0
  149.2330  156.9690  134.2440 H   0  0  0  0  0  0  0  0  0  0  0  0
  144.7350  156.5609  133.8243 H   0  0  0  0  0  0  0  0  0  0  0  0
  1  2  3  0
  2  3  1  0
  3  4  1  0
  4  5  1  0
  5  6  2  0
  5  7  1  0
  7  8  1  0
  8  9  1  0
  9 10  2  0
 10 11  1  0
 11 12  2  0
 12 13  1  0
 13 14  2  0
 14 15  1  0
 15 16  1  0
 15 17  2  0
 14 18  1  0
 18 19  1  0
 19 20  1  0
 19 21  2  0
 18 22  1  0
 22 23  2  0
 23  9  1  0
 22 12  1  0
  3 24  1  0
  3 25  1  0
  7 26  1  0
  7 27  1  0
  8 28  1  0
  8 29  1  0
 10 30  1  0
 11 31  1  0
 13 32  1  0
 16 33  1  0
 16 34  1  0
 20 35  1  0
 23 36  1  0
M  CHG  2   4  -1  20  -1
M  END
>  <UniqueID>  (69) 
69

>  <SMILES>  (69) 
N#CC[N-]C(=O)CCc1ccc2cc(C(N)=O)n(C([NH-])=O)c2c1

>  <Energy>  (69) 
68.91492817553845

>  <Genealogy>  (69) 
N#CC[N-]C(=O)CCc1ccc2cc(C(N)=O)n(C([NH-])=O)c2c1 (protonated)
N#CC[N-]C(=O)CCc1ccc2cc(C(N)=O)n(C([NH-])=O)c2c1 (3D coordinates assigned)
N#CC[N-]C(=O)CCc1ccc2cc(C(N)=O)n(C([NH-])=O)c2c1 (optimized conformer: 68.91492817553845 kcal/mol)

>  <smiles>  (69) 
N#CCNC(=O)CCc1ccc2cc(C(N)=O)n(C(N)=O)c2c1

>  <score_type>  (69) 
oracle

>  <origin>  (69) 
adg

>  <m_score__min__energy>  (69) 
-7.9000000000000004

>  <m_primary>  (69) 
energy

$$$$
69:0
     RDKit          3D

 39 40  0  0  0  0  0  0  0  0999 V2000
  141.6500  157.9940  134.2680 C   0  0  0  0  0  0  0  0  0  0  0  0
  142.9950  158.6040  134.0080 C   0  0  0  0  0  0  0  0  0  0  0  0
  143.1580  160.0100  134.0560 C   0  0  0  0  0  0  0  0  0  0  0  0
  144.4070  160.5950  133.7900 C   0  0  0  0  0  0  0  0  0  0  0  0
  145.4660  159.7520  133.4610 C   0  0  0  0  0  0  0  0  0  0  0  0
  146.7770  160.0520  133.1770 C   0  0  0  0  0  0  0  0  0  0  0  0
  147.3890  158.8250  132.9230 C   0  0  0  0  0  0  0  0  0  0  0  0
  148.7940  158.6820  132.4830 C   0  0  0  0  0  0  0  0  0  0  0  0
  149.2450  157.4790  131.8580 N   0  0  0  0  0  0  0  0  0  0  0  0
  149.6180  159.6120  132.6880 O   0  0  0  0  0  0  0  0  0  0  0  0
  146.4900  157.8080  133.0450 N   0  0  0  0  0  0  0  0  0  0  0  0
  146.7500  156.3980  132.9380 C   0  0  0  0  0  0  0  0  0  0  0  0
  145.9390  155.6570  132.3200 O   0  0  0  0  0  0  0  0  0  0  0  0
  147.9000  155.8620  133.5330 O   0  0  0  0  0  0  0  0  0  0  0  0
  148.6760  154.8260  132.9960 C   0  0  0  0  0  0  0  0  0  0  0  0
  149.6800  155.0670  132.2710 O   0  0  0  0  0  0  0  0  0  0  0  0
  148.3060  153.4060  133.2940 C   0  0  0  0  0  0  0  0  0  0  0  0
  149.4470  152.5030  133.0380 N   0  0  0  0  0  0  0  0  0  0  0  0
  149.2730  151.8340  131.7400 C   0  0  0  0  0  0  0  0  0  0  0  0
  149.5650  151.4910  134.1010 C   0  0  0  0  0  0  0  0  0  0  0  0
  145.3160  158.3910  133.3770 C   0  0  0  0  0  0  0  0  0  0  0  0
  144.0870  157.7810  133.6550 C   0  0  0  0  0  0  0  0  0  0  0  0
  141.4849  157.9191  135.3530 H   0  0  0  0  0  0  0  0  0  0  0  0
  140.8683  158.6257  133.8209 H   0  0  0  0  0  0  0  0  0  0  0  0
  141.6102  156.9898  133.8209 H   0  0  0  0  0  0  0  0  0  0  0  0
  142.2984  160.6500  134.3039 H   0  0  0  0  0  0  0  0  0  0  0  0
  144.5446  161.6852  133.8399 H   0  0  0  0  0  0  0  0  0  0  0  0
  147.2439  161.0478  133.1548 H   0  0  0  0  0  0  0  0  0  0  0  0
  148.5810  156.7070  131.6270 H   0  0  0  0  0  0  0  0  0  0  0  0
  150.2470  157.3740  131.5860 H   0  0  0  0  0  0  0  0  0  0  0  0
  148.0110  153.3241  134.3505 H   0  0  0  0  0  0  0  0  0  0  0  0
  147.4710  153.1140  132.6402 H   0  0  0  0  0  0  0  0  0  0  0  0
  148.9992  150.7813  131.9039 H   0  0  0  0  0  0  0  0  0  0  0  0
  148.4756  152.3362  131.1726 H   0  0  0  0  0  0  0  0  0  0  0  0
  150.2140  151.8841  131.1726 H   0  0  0  0  0  0  0  0  0  0  0  0
  149.5077  151.9827  135.0833 H   0  0  0  0  0  0  0  0  0  0  0  0
  148.7456  150.7631  134.0069 H   0  0  0  0  0  0  0  0  0  0  0  0
  150.5298  150.9712  134.0069 H   0  0  0  0  0  0  0  0  0  0  0  0
  143.9747  156.6881  133.5999 H   0  0  0  0  0  0  0  0  0  0  0  0
  1  2  1  0
  2  3  2  0
  3  4  1  0
  4  5  2  0
  5  6  1  0
  6  7  2  0
  7  8  1  0
  8  9  1  0
  8 10  2  0
  7 11  1  0
 11 12  1  0
 12 13  2  0
 12 14  1  0
 14 15  1  0
 15 16  2  0
 15 17  1  0
 17 18  1  0
 18 19  1  0
 18 20  1  0
 11 21  1  0
 21 22  2  0
 22  2  1  0
 21  5  1  0
  1 23  1  0
  1 24  1  0
  1 25  1  0
  3 26  1  0
  4 27  1  0
  6 28  1  0
  9 29  1  0
  9 30  1  0
 17 31  1  0
 17 32  1  0
 19 33  1  0
 19 34  1  0
 19 35  1  0
 20 36  1  0
 20 37  1  0
 20 38  1  0
 22 39  1  0
M  END
>  <UniqueID>  (70) 
70

>  <SMILES>  (70) 
Cc1ccc2cc(C(N)=O)n(C(=O)OC(=O)CN(C)C)c2c1

>  <Energy>  (70) 
76.39284136116414

>  <Genealogy>  (70) 
Cc1ccc2cc(C(N)=O)n(C(=O)OC(=O)CN(C)C)c2c1 (3D coordinates assigned)
Cc1ccc2cc(C(N)=O)n(C(=O)OC(=O)CN(C)C)c2c1 (optimized conformer: 76.39284136116414 kcal/mol)

>  <smiles>  (70) 
Cc1ccc2cc(C(N)=O)n(C(=O)OC(=O)CN(C)C)c2c1

>  <score_type>  (70) 
oracle

>  <origin>  (70) 
adg

>  <m_score__min__energy>  (70) 
-6.4100000000000001

>  <m_primary>  (70) 
energy

$$$$
70:0
     RDKit          3D

 32 33  0  0  0  0  0  0  0  0999 V2000
  146.1805  156.3096  135.5928 H   0  0  0  0  0  0  0  0  0  0  0  0
  146.6660  155.8620  134.7130 C   0  0  0  0  0  0  0  0  0  0  0  0
  146.4160  156.5080  133.4020 C   0  0  0  0  0  0  0  0  0  0  0  0
  146.3050  155.8250  132.3480 O   0  0  0  0  0  0  0  0  0  0  0  0
  146.2680  157.9350  133.3290 N   0  0  0  0  0  0  0  0  0  0  0  0
  147.2310  158.8540  133.0350 C   0  0  0  0  0  0  0  0  0  0  0  0
  148.6120  158.5350  132.6050 C   0  0  0  0  0  0  0  0  0  0  0  0
  149.5620  159.3050  132.9080 O   0  0  0  0  0  0  0  0  0  0  0  0
  148.8940  157.3450  131.8650 N   0  0  0  0  0  0  0  0  0  0  0  0
  148.1310  156.7130  131.5380 H   0  0  0  0  0  0  0  0  0  0  0  0
  149.8780  157.1140  131.6020 H   0  0  0  0  0  0  0  0  0  0  0  0
  146.7140  160.1460  133.1220 C   0  0  0  0  0  0  0  0  0  0  0  0
  147.2458  161.0909  132.9367 H   0  0  0  0  0  0  0  0  0  0  0  0
  145.3970  159.9880  133.4890 C   0  0  0  0  0  0  0  0  0  0  0  0
  144.4120  160.9430  133.7270 C   0  0  0  0  0  0  0  0  0  0  0  0
  144.6231  162.0164  133.6117 H   0  0  0  0  0  0  0  0  0  0  0  0
  143.1400  160.4930  134.1190 C   0  0  0  0  0  0  0  0  0  0  0  0
  142.3356  161.2219  134.2972 H   0  0  0  0  0  0  0  0  0  0  0  0
  142.8830  159.1100  134.2870 C   0  0  0  0  0  0  0  0  0  0  0  0
  141.5150  158.6430  134.6810 C   0  0  0  0  0  0  0  0  0  0  0  0
  141.4383  158.6168  135.7780 H   0  0  0  0  0  0  0  0  0  0  0  0
  140.7610  159.3346  134.2771 H   0  0  0  0  0  0  0  0  0  0  0  0
  141.3413  157.6347  134.2771 H   0  0  0  0  0  0  0  0  0  0  0  0
  143.9020  158.1700  134.0210 C   0  0  0  0  0  0  0  0  0  0  0  0
  143.7173  157.0914  134.1330 H   0  0  0  0  0  0  0  0  0  0  0  0
  145.1540  158.6450  133.6110 C   0  0  0  0  0  0  0  0  0  0  0  0
  147.4360  154.7740  134.9230 C   0  0  0  0  0  0  0  0  0  0  0  0
  148.1410  154.1170  133.8450 C   0  0  0  0  0  0  0  0  0  0  0  0
  148.7070  153.5900  132.9840 N   0  0  0  0  0  0  0  0  0  0  0  0
  147.6030  154.2190  136.2850 C   0  0  0  0  0  0  0  0  0  0  0  0
  146.9130  153.2410  136.6770 O   0  0  0  0  0  0  0  0  0  0  0  0
  148.5320  154.7770  137.1560 O   0  0  0  0  0  0  0  0  0  0  0  0
  1  2  1  0
  2  3  1  0
  3  4  2  0
  3  5  1  0
  5  6  1  0
  6  7  1  0
  7  8  2  0
  7  9  1  0
  9 10  1  0
  9 11  1  0
  6 12  2  0
 12 13  1  0
 12 14  1  0
 14 15  2  0
 15 16  1  0
 15 17  1  0
 17 18  1  0
 17 19  2  0
 19 20  1  0
 20 21  1  0
 20 22  1  0
 20 23  1  0
 19 24  1  0
 24 25  1  0
 24 26  2  0
  2 27  2  0
 27 28  1  0
 28 29  3  0
 27 30  1  0
 30 31  2  0
 30 32  1  0
 26  5  1  0
 26 14  1  0
M  CHG  1  32  -1
M  END
>  <UniqueID>  (71) 
71

>  <SMILES>  (71) 
Cc1ccc2cc(C(N)=O)n(C(=O)/C=C(\C#N)C(=O)[O-])c2c1

>  <Energy>  (71) 
72.8796466381147

>  <Genealogy>  (71) 
Cc1ccc2cc(C(N)=O)n(C(=O)C=C(C#N)C(=O)[O-])c2c1 (protonated)
Cc1ccc2cc(C(N)=O)n(C(=O)/C=C(\C#N)C(=O)[O-])c2c1 (cis-trans isomerization)
Cc1ccc2cc(C(N)=O)n(C(=O)/C=C(\C#N)C(=O)[O-])c2c1 (3D coordinates assigned)
Cc1ccc2cc(C(N)=O)n(C(=O)/C=C(\C#N)C(=O)[O-])c2c1 (optimized conformer: 72.8796466381147 kcal/mol)

>  <smiles>  (71) 
Cc1ccc2cc(C(N)=O)n(C(=O)C=C(C#N)C(=O)O)c2c1

>  <score_type>  (71) 
oracle

>  <origin>  (71) 
adg

>  <m_score__min__energy>  (71) 
-7.7199999999999998

>  <m_primary>  (71) 
energy

$$$$
71:0
     RDKit          3D

 49 50  0  0  0  0  0  0  0  0999 V2000
  139.9260  152.0160  132.6340 N   0  0  0  0  0  0  0  0  0  0  0  0
  141.0640  151.6730  133.4280 C   0  0  0  0  0  0  0  0  0  0  0  0
  141.0210  150.6610  134.1730 O   0  0  0  0  0  0  0  0  0  0  0  0
  142.2790  152.4990  133.3800 C   0  0  0  0  0  0  0  0  0  0  0  0
  143.5600  151.9590  133.2830 C   0  0  0  0  0  0  0  0  0  0  0  0
  144.3980  153.0430  133.1750 C   0  0  0  0  0  0  0  0  0  0  0  0
  145.7910  153.0820  133.0690 C   0  0  0  0  0  0  0  0  0  0  0  0
  146.4080  154.3410  133.0110 C   0  0  0  0  0  0  0  0  0  0  0  0
  145.6310  155.5340  133.0550 C   0  0  0  0  0  0  0  0  0  0  0  0
  146.3160  156.8780  133.0510 C   0  0  0  0  0  0  0  0  0  0  0  0
  147.3810  156.8790  132.1670 F   0  0  0  0  0  0  0  0  0  0  0  0
  145.4350  157.8730  132.6700 F   0  0  0  0  0  0  0  0  0  0  0  0
  146.7830  157.1520  134.3210 F   0  0  0  0  0  0  0  0  0  0  0  0
  144.2200  155.4510  133.1940 C   0  0  0  0  0  0  0  0  0  0  0  0
  143.6270  154.1830  133.2250 C   0  0  0  0  0  0  0  0  0  0  0  0
  142.3160  153.8650  133.3570 N   0  0  0  0  0  0  0  0  0  0  0  0
  141.2140  154.7820  133.5240 C   0  0  0  0  0  0  0  0  0  0  0  0
  140.3350  154.8780  132.6180 O   0  0  0  0  0  0  0  0  0  0  0  0
  141.0860  155.6220  134.7660 C   0  0  0  0  0  0  0  0  0  0  0  0
  141.0130  157.0560  134.4400 N   0  0  0  0  0  0  0  0  0  0  0  0
  142.0610  157.9630  134.9420 C   0  0  0  0  0  0  0  0  0  0  0  0
  143.0440  158.3950  133.8270 C   0  0  1  0  0  0  0  0  0  0  0  0
  142.6530  157.8520  132.5910 O   0  0  0  0  0  0  0  0  0  0  0  0
  143.1490  159.9210  133.6890 C   0  0  0  0  0  0  0  0  0  0  0  0
  142.0380  160.4290  132.9970 O   0  0  0  0  0  0  0  0  0  0  0  0
  139.9610  157.5420  133.5780 C   0  0  0  0  0  0  0  0  0  0  0  0
  138.9180  156.8490  133.3960 O   0  0  0  0  0  0  0  0  0  0  0  0
  140.0960  158.7990  132.9650 O   0  0  0  0  0  0  0  0  0  0  0  0
  139.7500  159.0850  131.6310 C   0  0  0  0  0  0  0  0  0  0  0  0
  140.5990  158.9920  130.6940 O   0  0  0  0  0  0  0  0  0  0  0  0
  138.3590  159.5350  131.3120 C   0  0  0  0  0  0  0  0  0  0  0  0
  138.1290  160.7900  131.8590 F   0  0  0  0  0  0  0  0  0  0  0  0
  138.1860  159.6030  129.9390 F   0  0  0  0  0  0  0  0  0  0  0  0
  137.4530  158.6360  131.8430 F   0  0  0  0  0  0  0  0  0  0  0  0
  139.0650  151.4400  132.6790 H   0  0  0  0  0  0  0  0  0  0  0  0
  139.9420  152.8510  131.9980 H   0  0  0  0  0  0  0  0  0  0  0  0
  143.8399  150.8952  133.2911 H   0  0  0  0  0  0  0  0  0  0  0  0
  146.3841  152.1564  133.0322 H   0  0  0  0  0  0  0  0  0  0  0  0
  147.5031  154.4073  132.9307 H   0  0  0  0  0  0  0  0  0  0  0  0
  143.6077  156.3612  133.2754 H   0  0  0  0  0  0  0  0  0  0  0  0
  140.1713  155.3300  135.3027 H   0  0  0  0  0  0  0  0  0  0  0  0
  141.9758  155.4540  135.3906 H   0  0  0  0  0  0  0  0  0  0  0  0
  141.5821  158.8610  135.3594 H   0  0  0  0  0  0  0  0  0  0  0  0
  142.6362  157.4229  135.7085 H   0  0  0  0  0  0  0  0  0  0  0  0
  144.0327  158.0109  134.1183 H   0  0  0  0  0  0  0  0  0  0  0  0
  142.0900  158.5340  132.1380 H   0  0  0  0  0  0  0  0  0  0  0  0
  143.1894  160.3733  134.6909 H   0  0  0  0  0  0  0  0  0  0  0  0
  144.0617  160.1657  133.1258 H   0  0  0  0  0  0  0  0  0  0  0  0
  141.8870  159.8210  132.2270 H   0  0  0  0  0  0  0  0  0  0  0  0
  1  2  1  0
  2  3  2  0
  2  4  1  0
  4  5  2  0
  5  6  1  0
  6  7  2  0
  7  8  1  0
  8  9  2  0
  9 10  1  0
 10 11  1  0
 10 12  1  0
 10 13  1  0
  9 14  1  0
 14 15  2  0
 15 16  1  0
 16 17  1  0
 17 18  2  0
 17 19  1  0
 19 20  1  0
 20 21  1  0
 21 22  1  0
 22 23  1  0
 22 24  1  0
 24 25  1  0
 20 26  1  0
 26 27  2  0
 26 28  1  0
 28 29  1  0
 29 30  2  0
 29 31  1  0
 31 32  1  0
 31 33  1  0
 31 34  1  0
 16  4  1  0
 15  6  1  0
  1 35  1  0
  1 36  1  0
  5 37  1  0
  7 38  1  0
  8 39  1  0
 14 40  1  0
 19 41  1  0
 19 42  1  0
 21 43  1  0
 21 44  1  0
 22 45  1  1
 23 46  1  0
 24 47  1  0
 24 48  1  0
 25 49  1  0
M  END
>  <UniqueID>  (72) 
72

>  <SMILES>  (72) 
NC(=O)c1cc2ccc(C(F)(F)F)cc2n1C(=O)CN(C[C@@H](O)CO)C(=O)OC(=O)C(F)(F)F

>  <Energy>  (72) 
85.70660694083459

>  <Genealogy>  (72) 
NC(=O)c1cc2ccc(C(F)(F)F)cc2n1C(=O)CN(C[C@@H](O)CO)C(=O)OC(=O)C(F)(F)F (chirality)
NC(=O)c1cc2ccc(C(F)(F)F)cc2n1C(=O)CN(C[C@@H](O)CO)C(=O)OC(=O)C(F)(F)F (3D coordinates assigned)
NC(=O)c1cc2ccc(C(F)(F)F)cc2n1C(=O)CN(C[C@@H](O)CO)C(=O)OC(=O)C(F)(F)F (optimized conformer: 85.70660694083459 kcal/mol)

>  <smiles>  (72) 
NC(=O)c1cc2ccc(C(F)(F)F)cc2n1C(=O)CN(CC(O)CO)C(=O)OC(=O)C(F)(F)F

>  <score_type>  (72) 
oracle

>  <origin>  (72) 
adg

>  <m_score__min__energy>  (72) 
-6.4299999999999997

>  <m_primary>  (72) 
energy

$$$$
72:0
     RDKit          3D

 31 32  0  0  0  0  0  0  0  0999 V2000
  149.4970  161.8380  130.3560 C   0  0  0  0  0  0  0  0  0  0  0  0
  149.0940  160.5610  131.0310 C   0  0  0  0  0  0  0  0  0  0  0  0
  149.9890  159.4650  131.0660 C   0  0  0  0  0  0  0  0  0  0  0  0
  149.6440  158.2810  131.7390 C   0  0  0  0  0  0  0  0  0  0  0  0
  148.4030  158.2260  132.3680 C   0  0  0  0  0  0  0  0  0  0  0  0
  147.8390  157.2220  133.1190 C   0  0  0  0  0  0  0  0  0  0  0  0
  146.6010  157.7150  133.5220 C   0  0  0  0  0  0  0  0  0  0  0  0
  145.6300  156.9280  134.3080 C   0  0  0  0  0  0  0  0  0  0  0  0
  144.2280  157.0100  134.0480 N   0  0  0  0  0  0  0  0  0  0  0  0
  146.0490  156.1290  135.1870 O   0  0  0  0  0  0  0  0  0  0  0  0
  146.4100  158.9790  133.0500 N   0  0  0  0  0  0  0  0  0  0  0  0
  145.3170  159.8620  133.3530 C   0  0  0  0  0  0  0  0  0  0  0  0
  145.5310  160.9560  133.9430 O   0  0  0  0  0  0  0  0  0  0  0  0
  144.0140  159.5000  132.9920 O   0  0  0  0  0  0  0  0  0  0  0  0
  142.8610  159.8660  133.7450 C   0  0  0  0  0  0  0  0  0  0  0  0
  142.4700  161.1500  133.4090 F   0  0  0  0  0  0  0  0  0  0  0  0
  143.1550  159.8130  135.0980 F   0  0  0  0  0  0  0  0  0  0  0  0
  141.7430  158.9230  133.4330 C   0  0  0  0  0  0  0  0  0  0  0  0
  140.7790  159.2960  132.7150 O   0  0  0  0  0  0  0  0  0  0  0  0
  141.7980  157.6060  133.8760 O   0  0  0  0  0  0  0  0  0  0  0  0
  147.5230  159.2780  132.3420 C   0  0  0  0  0  0  0  0  0  0  0  0
  147.8510  160.4770  131.6960 C   0  0  0  0  0  0  0  0  0  0  0  0
  149.7360  162.5954  131.1170 H   0  0  0  0  0  0  0  0  0  0  0  0
  150.3818  161.6573  129.7279 H   0  0  0  0  0  0  0  0  0  0  0  0
  148.6688  162.1979  129.7279 H   0  0  0  0  0  0  0  0  0  0  0  0
  150.9636  159.5410  130.5616 H   0  0  0  0  0  0  0  0  0  0  0  0
  150.3329  157.4240  131.7681 H   0  0  0  0  0  0  0  0  0  0  0  0
  148.2734  156.2386  133.3519 H   0  0  0  0  0  0  0  0  0  0  0  0
  143.8620  157.5340  133.2220 H   0  0  0  0  0  0  0  0  0  0  0  0
  143.5530  156.4800  134.6430 H   0  0  0  0  0  0  0  0  0  0  0  0
  147.1580  161.3312  131.7065 H   0  0  0  0  0  0  0  0  0  0  0  0
  1  2  1  0
  2  3  2  0
  3  4  1  0
  4  5  2  0
  5  6  1  0
  6  7  2  0
  7  8  1  0
  8  9  1  0
  8 10  2  0
  7 11  1  0
 11 12  1  0
 12 13  2  0
 12 14  1  0
 14 15  1  0
 15 16  1  0
 15 17  1  0
 15 18  1  0
 18 19  2  0
 18 20  1  0
 11 21  1  0
 21 22  2  0
 22  2  1  0
 21  5  1  0
  1 23  1  0
  1 24  1  0
  1 25  1  0
  3 26  1  0
  4 27  1  0
  6 28  1  0
  9 29  1  0
  9 30  1  0
 22 31  1  0
M  CHG  1  20  -1
M  END
>  <UniqueID>  (73) 
73

>  <SMILES>  (73) 
Cc1ccc2cc(C(N)=O)n(C(=O)OC(F)(F)C(=O)[O-])c2c1

>  <Energy>  (73) 
67.59420379417465

>  <Genealogy>  (73) 
Cc1ccc2cc(C(N)=O)n(C(=O)OC(F)(F)C(=O)[O-])c2c1 (protonated)
Cc1ccc2cc(C(N)=O)n(C(=O)OC(F)(F)C(=O)[O-])c2c1 (3D coordinates assigned)
Cc1ccc2cc(C(N)=O)n(C(=O)OC(F)(F)C(=O)[O-])c2c1 (optimized conformer: 67.59420379417465 kcal/mol)

>  <smiles>  (73) 
Cc1ccc2cc(C(N)=O)n(C(=O)OC(F)(F)C(=O)O)c2c1

>  <score_type>  (73) 
oracle

>  <origin>  (73) 
adg

>  <m_score__min__energy>  (73) 
-6.2300000000000004

>  <m_primary>  (73) 
energy

$$$$
73:0
     RDKit          3D

 34 35  0  0  0  0  0  0  0  0999 V2000
  142.7200  160.4870  134.0550 N   0  0  0  0  0  0  0  0  0  0  0  0
  144.0630  160.8900  133.7780 C   0  0  0  0  0  0  0  0  0  0  0  0
  144.3340  162.1190  133.7290 O   0  0  0  0  0  0  0  0  0  0  0  0
  145.1230  159.8860  133.5300 C   0  0  0  0  0  0  0  0  0  0  0  0
  146.4760  160.1910  133.3850 C   0  0  0  0  0  0  0  0  0  0  0  0
  147.1100  158.9790  133.2360 C   0  0  0  0  0  0  0  0  0  0  0  0
  148.4580  158.6930  133.0400 C   0  0  0  0  0  0  0  0  0  0  0  0
  148.8290  157.3460  132.8850 C   0  0  0  0  0  0  0  0  0  0  0  0
  147.8530  156.3190  132.9230 C   0  0  0  0  0  0  0  0  0  0  0  0
  148.2700  154.8880  132.7390 C   0  0  0  0  0  0  0  0  0  0  0  0
  148.1430  154.2060  133.9350 F   0  0  0  0  0  0  0  0  0  0  0  0
  149.5880  154.8360  132.3220 F   0  0  0  0  0  0  0  0  0  0  0  0
  146.4950  156.6490  133.1220 C   0  0  0  0  0  0  0  0  0  0  0  0
  146.1560  157.9960  133.2920 C   0  0  0  0  0  0  0  0  0  0  0  0
  144.9320  158.5380  133.4780 N   0  0  0  0  0  0  0  0  0  0  0  0
  143.6780  157.8380  133.5320 C   0  0  0  0  0  0  0  0  0  0  0  0
  142.8360  158.0050  132.6100 O   0  0  0  0  0  0  0  0  0  0  0  0
  143.3260  156.9810  134.7180 C   0  0  0  0  0  0  0  0  0  0  0  0
  141.8120  156.9380  134.9880 C   0  0  0  0  0  0  0  0  0  0  0  0
  141.1890  158.4890  135.7210 P   0  0  0  0  0  0  0  0  0  0  0  0
  142.3340  159.2580  136.3390 O   0  0  0  0  0  0  0  0  0  0  0  0
  140.0630  158.1120  136.9240 O   0  0  0  0  0  0  0  0  0  0  0  0
  140.4400  159.4460  134.5470 O   0  0  0  0  0  0  0  0  0  0  0  0
  142.4650  159.4830  134.1700 H   0  0  0  0  0  0  0  0  0  0  0  0
  141.9760  161.2070  134.1890 H   0  0  0  0  0  0  0  0  0  0  0  0
  146.9384  161.1891  133.3889 H   0  0  0  0  0  0  0  0  0  0  0  0
  149.2094  159.4957  133.0074 H   0  0  0  0  0  0  0  0  0  0  0  0
  149.8871  157.0865  132.7327 H   0  0  0  0  0  0  0  0  0  0  0  0
  147.6249  154.4212  131.9801 H   0  0  0  0  0  0  0  0  0  0  0  0
  145.7222  155.8665  133.1429 H   0  0  0  0  0  0  0  0  0  0  0  0
  143.6796  155.9565  134.5298 H   0  0  0  0  0  0  0  0  0  0  0  0
  143.8099  157.4210  135.6025 H   0  0  0  0  0  0  0  0  0  0  0  0
  141.2887  156.7623  134.0365 H   0  0  0  0  0  0  0  0  0  0  0  0
  141.6236  156.1284  135.7084 H   0  0  0  0  0  0  0  0  0  0  0  0
  1  2  1  0
  2  3  2  0
  2  4  1  0
  4  5  2  0
  5  6  1  0
  6  7  2  0
  7  8  1  0
  8  9  2  0
  9 10  1  0
 10 11  1  0
 10 12  1  0
  9 13  1  0
 13 14  2  0
 14 15  1  0
 15 16  1  0
 16 17  2  0
 16 18  1  0
 18 19  1  0
 19 20  1  0
 20 21  2  0
 20 22  1  0
 20 23  1  0
 15  4  1  0
 14  6  1  0
  1 24  1  0
  1 25  1  0
  5 26  1  0
  7 27  1  0
  8 28  1  0
 10 29  1  0
 13 30  1  0
 18 31  1  0
 18 32  1  0
 19 33  1  0
 19 34  1  0
M  CHG  2  22  -1  23  -1
M  END
>  <UniqueID>  (74) 
74

>  <SMILES>  (74) 
NC(=O)c1cc2ccc(C(F)F)cc2n1C(=O)CCP(=O)([O-])[O-]

>  <Energy>  (74) 
69.28791912803379

>  <Genealogy>  (74) 
NC(=O)c1cc2ccc(C(F)F)cc2n1C(=O)CCP(=O)([O-])[O-] (protonated)
NC(=O)c1cc2ccc(C(F)F)cc2n1C(=O)CCP(=O)([O-])[O-] (3D coordinates assigned)
NC(=O)c1cc2ccc(C(F)F)cc2n1C(=O)CCP(=O)([O-])[O-] (optimized conformer: 69.28791912803379 kcal/mol)

>  <smiles>  (74) 
NC(=O)c1cc2ccc(C(F)F)cc2n1C(=O)CCP(=O)(O)O

>  <score_type>  (74) 
oracle

>  <origin>  (74) 
adg

>  <m_score__min__energy>  (74) 
-6.1799999999999997

>  <m_primary>  (74) 
energy

$$$$
74:0
     RDKit          3D

 52 56  0  0  0  0  0  0  0  0999 V2000
  146.2610  159.7410  132.6760 C   0  0  0  0  0  0  0  0  0  0  0  0
  147.6040  159.4240  132.2070 N   0  0  0  0  0  0  0  0  0  0  0  0
  148.1290  159.8450  131.0700 N   0  0  0  0  0  0  0  0  0  0  0  0
  149.3860  159.4290  131.0050 N   0  0  0  0  0  0  0  0  0  0  0  0
  149.6960  158.7450  132.1010 N   0  0  0  0  0  0  0  0  0  0  0  0
  148.5760  158.7530  132.8440 C   0  0  0  0  0  0  0  0  0  0  0  0
  148.4250  157.9910  134.4670 S   0  0  0  0  0  0  0  0  0  0  0  0
  148.3800  156.2730  133.8280 C   0  0  0  0  0  0  0  0  0  0  0  0
  147.0390  155.5480  133.9040 C   0  0  0  0  0  0  0  0  0  0  0  0
  146.7610  154.6960  134.9380 C   0  0  0  0  0  0  0  0  0  0  0  0
  147.7180  154.3230  136.0200 C   0  0  0  0  0  0  0  0  0  0  0  0
  148.4470  155.2120  136.5320 O   0  0  0  0  0  0  0  0  0  0  0  0
  147.8410  153.0240  136.4970 O   0  0  0  0  0  0  0  0  0  0  0  0
  145.4390  154.1520  135.0180 N   0  0  0  0  0  0  0  0  0  0  0  0
  144.5070  153.7360  136.0940 C   0  0  0  0  0  0  0  0  0  0  0  0
  144.6210  153.4340  137.3120 O   0  0  0  0  0  0  0  0  0  0  0  0
  143.3570  153.8790  135.1440 C   0  0  1  0  0  0  0  0  0  0  0  0
  142.4690  154.9830  135.5260 N   0  0  0  0  0  0  0  0  0  0  0  0
  141.5530  155.6120  134.6090 C   0  0  0  0  0  0  0  0  0  0  0  0
  140.6070  154.8520  133.8690 C   0  0  0  0  0  0  0  0  0  0  0  0
  139.7360  155.4780  132.9630 C   0  0  0  0  0  0  0  0  0  0  0  0
  139.8250  156.8590  132.8170 C   0  0  0  0  0  0  0  0  0  0  0  0
  139.0980  157.7120  132.0160 C   0  0  0  0  0  0  0  0  0  0  0  0
  139.6020  158.9780  132.2890 C   0  0  0  0  0  0  0  0  0  0  0  0
  139.0410  160.2160  131.7330 C   0  0  0  0  0  0  0  0  0  0  0  0
  139.4770  161.4860  132.2160 N   0  0  0  0  0  0  0  0  0  0  0  0
  138.1630  160.1500  130.8340 O   0  0  0  0  0  0  0  0  0  0  0  0
  140.5850  158.9220  133.2260 N   0  0  0  0  0  0  0  0  0  0  0  0
  141.2760  160.0400  133.8140 C   0  0  0  0  0  0  0  0  0  0  0  0
  140.9990  160.4180  134.9800 O   0  0  0  0  0  0  0  0  0  0  0  0
  142.2230  160.7450  133.0820 O   0  0  0  0  0  0  0  0  0  0  0  0
  140.7160  157.6120  133.5390 C   0  0  0  0  0  0  0  0  0  0  0  0
  141.6090  157.0130  134.4340 C   0  0  0  0  0  0  0  0  0  0  0  0
  144.3190  154.2010  134.1140 C   0  0  1  0  0  0  0  0  0  0  0  0
  144.2910  155.8660  133.3710 S   0  0  0  0  0  0  0  0  0  0  0  0
  146.0160  155.6860  132.7720 C   0  0  0  0  0  0  0  0  0  0  0  0
  146.2479  159.7441  133.7759 H   0  0  0  0  0  0  0  0  0  0  0  0
  145.9670  160.7332  132.3030 H   0  0  0  0  0  0  0  0  0  0  0  0
  145.5544  158.9850  132.3030 H   0  0  0  0  0  0  0  0  0  0  0  0
  148.6835  156.3025  132.7711 H   0  0  0  0  0  0  0  0  0  0  0  0
  149.0543  155.7029  134.4840 H   0  0  0  0  0  0  0  0  0  0  0  0
  142.6116  153.0868  134.9802 H   0  0  0  0  0  0  0  0  0  0  0  0
  142.4340  155.2710  136.5300 H   0  0  0  0  0  0  0  0  0  0  0  0
  140.5567  153.7619  134.0076 H   0  0  0  0  0  0  0  0  0  0  0  0
  139.0045  154.8938  132.3854 H   0  0  0  0  0  0  0  0  0  0  0  0
  138.2937  157.4485  131.3134 H   0  0  0  0  0  0  0  0  0  0  0  0
  139.0870  162.3650  131.8130 H   0  0  0  0  0  0  0  0  0  0  0  0
  140.2100  161.5490  132.9590 H   0  0  0  0  0  0  0  0  0  0  0  0
  142.3391  157.6198  134.9896 H   0  0  0  0  0  0  0  0  0  0  0  0
  144.2259  153.5703  133.2176 H   0  0  0  0  0  0  0  0  0  0  0  0
  146.0737  154.7890  132.1380 H   0  0  0  0  0  0  0  0  0  0  0  0
  146.2656  156.6024  132.2171 H   0  0  0  0  0  0  0  0  0  0  0  0
  1  2  1  0
  2  3  1  0
  3  4  2  0
  4  5  1  0
  5  6  2  0
  6  7  1  0
  7  8  1  0
  8  9  1  0
  9 10  2  0
 10 11  1  0
 11 12  2  0
 11 13  1  0
 10 14  1  0
 14 15  1  0
 15 16  2  0
 15 17  1  0
 17 18  1  0
 18 19  1  0
 19 20  2  0
 20 21  1  0
 21 22  2  0
 22 23  1  0
 23 24  2  0
 24 25  1  0
 25 26  1  0
 25 27  2  0
 24 28  1  0
 28 29  1  0
 29 30  2  0
 29 31  1  0
 28 32  1  0
 32 33  2  0
 17 34  1  0
 34 35  1  0
 35 36  1  0
  6  2  1  0
 36  9  1  0
 34 14  1  0
 33 19  1  0
 32 22  1  0
  1 37  1  0
  1 38  1  0
  1 39  1  0
  8 40  1  0
  8 41  1  0
 17 42  1  6
 18 43  1  0
 20 44  1  0
 21 45  1  0
 23 46  1  0
 26 47  1  0
 26 48  1  0
 33 49  1  0
 34 50  1  6
 36 51  1  0
 36 52  1  0
M  CHG  2  13  -1  31  -1
M  END
>  <UniqueID>  (75) 
75

>  <SMILES>  (75) 
Cn1nnnc1SCC1=C(C(=O)[O-])N2C(=O)[C@@H](Nc3ccc4cc(C(N)=O)n(C(=O)[O-])c4c3)[C@H]2SC1

>  <Energy>  (75) 
185.03332458161344

>  <Genealogy>  (75) 
Cn1nnnc1SCC1=C(C(=O)[O-])N2C(=O)C(Nc3ccc4cc(C(N)=O)n(C(=O)[O-])c4c3)[C@H]2SC1 (protonated)
Cn1nnnc1SCC1=C(C(=O)[O-])N2C(=O)[C@@H](Nc3ccc4cc(C(N)=O)n(C(=O)[O-])c4c3)[C@H]2SC1 (chirality)
Cn1nnnc1SCC1=C(C(=O)[O-])N2C(=O)[C@@H](Nc3ccc4cc(C(N)=O)n(C(=O)[O-])c4c3)[C@H]2SC1 (3D coordinates assigned)
Cn1nnnc1SCC1=C(C(=O)[O-])N2C(=O)[C@@H](Nc3ccc4cc(C(N)=O)n(C(=O)[O-])c4c3)[C@H]2SC1 (nonaromatic ring conformer: 185.03332458161344 kcal/mol)

>  <smiles>  (75) 
Cn1nnnc1SCC1=C(C(=O)O)N2C(=O)C(Nc3ccc4cc(C(N)=O)n(C(=O)O)c4c3)[C@H]2SC1

>  <score_type>  (75) 
oracle

>  <origin>  (75) 
adg

>  <m_score__min__energy>  (75) 
-10.859999999999999

>  <m_primary>  (75) 
energy

$$$$
75:0
     RDKit          3D

 38 39  0  0  0  0  0  0  0  0999 V2000
  148.9890  152.1800  132.9220 C   0  0  0  0  0  0  0  0  0  0  0  0
  148.7060  153.6460  133.2910 C   0  0  0  0  0  0  0  0  0  0  0  0
  148.0290  153.7440  134.6690 C   0  0  0  0  0  0  0  0  0  0  0  0
  147.9510  154.3600  132.2360 N   0  0  0  0  0  0  0  0  0  0  0  0
  147.7010  155.7540  132.5350 C   0  0  0  0  0  0  0  0  0  0  0  0
  148.7800  156.6760  132.6060 C   0  0  0  0  0  0  0  0  0  0  0  0
  148.5500  158.0310  132.9040 C   0  0  0  0  0  0  0  0  0  0  0  0
  147.2370  158.4380  133.1160 C   0  0  0  0  0  0  0  0  0  0  0  0
  146.7320  159.6780  133.4380 C   0  0  0  0  0  0  0  0  0  0  0  0
  145.3530  159.5000  133.5360 C   0  0  0  0  0  0  0  0  0  0  0  0
  144.3980  160.5960  133.7980 C   0  0  0  0  0  0  0  0  0  0  0  0
  143.0440  160.4760  133.3710 N   0  0  0  0  0  0  0  0  0  0  0  0
  144.7610  161.6280  134.4200 O   0  0  0  0  0  0  0  0  0  0  0  0
  145.0210  158.2010  133.2890 N   0  0  0  0  0  0  0  0  0  0  0  0
  143.7260  157.5880  133.3570 C   0  0  0  0  0  0  0  0  0  0  0  0
  142.9770  157.6100  132.3430 O   0  0  0  0  0  0  0  0  0  0  0  0
  143.3360  156.7810  134.5630 C   0  0  0  0  0  0  0  0  0  0  0  0
  144.0530  155.4670  134.6030 C   0  0  0  0  0  0  0  0  0  0  0  0
  143.6280  154.4940  133.9280 O   0  0  0  0  0  0  0  0  0  0  0  0
  145.1790  155.3090  135.4030 O   0  0  0  0  0  0  0  0  0  0  0  0
  146.1830  157.5660  133.0310 C   0  0  0  0  0  0  0  0  0  0  0  0
  146.3800  156.2130  132.7430 C   0  0  0  0  0  0  0  0  0  0  0  0
  149.1036  151.5862  133.8408 H   0  0  0  0  0  0  0  0  0  0  0  0
  148.1510  151.7824  132.3306 H   0  0  0  0  0  0  0  0  0  0  0  0
  149.9148  152.1229  132.3306 H   0  0  0  0  0  0  0  0  0  0  0  0
  149.6751  154.1614  133.3627 H   0  0  0  0  0  0  0  0  0  0  0  0
  148.7870  153.6343  135.4586 H   0  0  0  0  0  0  0  0  0  0  0  0
  147.5367  154.7228  134.7669 H   0  0  0  0  0  0  0  0  0  0  0  0
  147.2793  152.9450  134.7669 H   0  0  0  0  0  0  0  0  0  0  0  0
  147.0380  153.8700  132.0790 H   0  0  0  0  0  0  0  0  0  0  0  0
  148.4770  154.2880  131.3330 H   0  0  0  0  0  0  0  0  0  0  0  0
  149.8071  156.3258  132.4258 H   0  0  0  0  0  0  0  0  0  0  0  0
  149.3828  158.7469  132.9675 H   0  0  0  0  0  0  0  0  0  0  0  0
  147.2966  160.6103  133.5863 H   0  0  0  0  0  0  0  0  0  0  0  0
  142.7710  159.7770  132.6440 H   0  0  0  0  0  0  0  0  0  0  0  0
  143.5853  157.3514  135.4699 H   0  0  0  0  0  0  0  0  0  0  0  0
  142.2556  156.5817  134.5086 H   0  0  0  0  0  0  0  0  0  0  0  0
  145.5272  155.5211  132.6796 H   0  0  0  0  0  0  0  0  0  0  0  0
  1  2  1  0
  2  3  1  0
  2  4  1  0
  4  5  1  0
  5  6  2  0
  6  7  1  0
  7  8  2  0
  8  9  1  0
  9 10  2  0
 10 11  1  0
 11 12  1  0
 11 13  2  0
 10 14  1  0
 14 15  1  0
 15 16  2  0
 15 17  1  0
 17 18  1  0
 18 19  2  0
 18 20  1  0
 14 21  1  0
 21 22  2  0
 22  5  1  0
 21  8  1  0
  1 23  1  0
  1 24  1  0
  1 25  1  0
  2 26  1  0
  3 27  1  0
  3 28  1  0
  3 29  1  0
  4 30  1  0
  4 31  1  0
  6 32  1  0
  7 33  1  0
  9 34  1  0
 12 35  1  0
 17 36  1  0
 17 37  1  0
 22 38  1  0
M  CHG  3   4   1  12  -1  20  -1
M  END
>  <UniqueID>  (76) 
76

>  <SMILES>  (76) 
CC(C)[NH2+]c1ccc2cc(C([NH-])=O)n(C(=O)CC(=O)[O-])c2c1

>  <Energy>  (76) 
76.50323810292412

>  <Genealogy>  (76) 
CC(C)[NH2+]c1ccc2cc(C([NH-])=O)n(C(=O)CC(=O)[O-])c2c1 (protonated)
CC(C)[NH2+]c1ccc2cc(C([NH-])=O)n(C(=O)CC(=O)[O-])c2c1 (3D coordinates assigned)
CC(C)[NH2+]c1ccc2cc(C([NH-])=O)n(C(=O)CC(=O)[O-])c2c1 (optimized conformer: 76.50323810292412 kcal/mol)

>  <smiles>  (76) 
CC(C)Nc1ccc2cc(C(N)=O)n(C(=O)CC(=O)O)c2c1

>  <score_type>  (76) 
oracle

>  <origin>  (76) 
adg

>  <m_score__min__energy>  (76) 
-6.7300000000000004

>  <m_primary>  (76) 
energy

$$$$
76:0
     RDKit          3D

 29 30  0  0  0  0  0  0  0  0999 V2000
  145.7420  161.8420  134.0910 N   0  0  0  0  0  0  0  0  0  0  0  0
  144.3550  161.9890  133.7950 C   0  0  0  0  0  0  0  0  0  0  0  0
  143.8950  163.1360  133.5530 O   0  0  0  0  0  0  0  0  0  0  0  0
  143.4850  160.7950  133.7350 C   0  0  0  0  0  0  0  0  0  0  0  0
  142.1130  160.8330  133.9660 C   0  0  0  0  0  0  0  0  0  0  0  0
  141.6970  159.5220  133.9080 C   0  0  0  0  0  0  0  0  0  0  0  0
  140.4260  158.9800  134.0700 C   0  0  0  0  0  0  0  0  0  0  0  0
  140.2830  157.5890  133.9420 C   0  0  0  0  0  0  0  0  0  0  0  0
  141.4000  156.7690  133.6300 C   0  0  0  0  0  0  0  0  0  0  0  0
  141.2400  155.2730  133.5330 C   0  0  0  0  0  0  0  0  0  0  0  0
  141.0470  154.7190  134.7860 F   0  0  0  0  0  0  0  0  0  0  0  0
  142.3800  154.7300  132.9710 F   0  0  0  0  0  0  0  0  0  0  0  0
  140.1500  154.9480  132.7440 F   0  0  0  0  0  0  0  0  0  0  0  0
  142.6790  157.3580  133.4970 C   0  0  0  0  0  0  0  0  0  0  0  0
  142.7940  158.7450  133.6480 C   0  0  0  0  0  0  0  0  0  0  0  0
  143.9010  159.5120  133.5370 N   0  0  0  0  0  0  0  0  0  0  0  0
  145.2240  159.0520  133.2170 C   0  0  0  0  0  0  0  0  0  0  0  0
  145.8720  159.6010  132.2840 O   0  0  0  0  0  0  0  0  0  0  0  0
  145.7760  157.9810  133.9270 O   0  0  0  0  0  0  0  0  0  0  0  0
  147.0060  157.3550  133.5700 C   0  0  0  0  0  0  0  0  0  0  0  0
  148.4060  158.5780  133.6670 P   0  0  0  0  0  0  0  0  0  0  0  0
  148.1110  160.1020  133.6970 O   0  0  0  0  0  0  0  0  0  0  0  0
  146.3930  161.3980  133.4060 H   0  0  0  0  0  0  0  0  0  0  0  0
  141.4929  161.7217  134.1548 H   0  0  0  0  0  0  0  0  0  0  0  0
  139.5600  159.6211  134.2915 H   0  0  0  0  0  0  0  0  0  0  0  0
  139.2941  157.1289  134.0851 H   0  0  0  0  0  0  0  0  0  0  0  0
  143.5630  156.7404  133.2799 H   0  0  0  0  0  0  0  0  0  0  0  0
  147.2032  156.5222  134.2611 H   0  0  0  0  0  0  0  0  0  0  0  0
  146.9300  156.9794  132.5389 H   0  0  0  0  0  0  0  0  0  0  0  0
  1  2  1  0
  2  3  2  0
  2  4  1  0
  4  5  2  0
  5  6  1  0
  6  7  2  0
  7  8  1  0
  8  9  2  0
  9 10  1  0
 10 11  1  0
 10 12  1  0
 10 13  1  0
  9 14  1  0
 14 15  2  0
 15 16  1  0
 16 17  1  0
 17 18  2  0
 17 19  1  0
 19 20  1  0
 20 21  1  0
 21 22  2  0
 16  4  1  0
 15  6  1  0
  1 23  1  0
  5 24  1  0
  7 25  1  0
  8 26  1  0
 14 27  1  0
 20 28  1  0
 20 29  1  0
M  CHG  1   1  -1
M  END
>  <UniqueID>  (77) 
77

>  <SMILES>  (77) 
[NH-]C(=O)c1cc2ccc(C(F)(F)F)cc2n1C(=O)OCP=O

>  <Energy>  (77) 
65.95451655910286

>  <Genealogy>  (77) 
[NH-]C(=O)c1cc2ccc(C(F)(F)F)cc2n1C(=O)OCP=O (protonated)
[NH-]C(=O)c1cc2ccc(C(F)(F)F)cc2n1C(=O)OCP=O (3D coordinates assigned)
[NH-]C(=O)c1cc2ccc(C(F)(F)F)cc2n1C(=O)OCP=O (optimized conformer: 65.95451655910286 kcal/mol)

>  <smiles>  (77) 
NC(=O)c1cc2ccc(C(F)(F)F)cc2n1C(=O)OCP=O

>  <score_type>  (77) 
oracle

>  <origin>  (77) 
adg

>  <m_score__min__energy>  (77) 
-5.4299999999999997

>  <m_primary>  (77) 
energy

$$$$
77:0
     RDKit          3D

 36 37  0  0  0  0  0  0  0  0999 V2000
  148.4600  153.9500  133.3910 C   0  0  0  0  0  0  0  0  0  0  0  0
  148.1170  154.9230  132.3580 N   0  0  0  0  0  0  0  0  0  0  0  0
  147.8810  156.3170  132.6260 C   0  0  0  0  0  0  0  0  0  0  0  0
  148.9550  157.2320  132.5040 C   0  0  0  0  0  0  0  0  0  0  0  0
  148.7650  158.6030  132.7440 C   0  0  0  0  0  0  0  0  0  0  0  0
  147.4950  159.0310  133.1120 C   0  0  0  0  0  0  0  0  0  0  0  0
  147.0330  160.2990  133.3760 C   0  0  0  0  0  0  0  0  0  0  0  0
  145.6820  160.1430  133.6800 C   0  0  0  0  0  0  0  0  0  0  0  0
  144.8050  161.2530  134.1150 C   0  0  0  0  0  0  0  0  0  0  0  0
  143.4390  161.3080  133.7020 N   0  0  0  0  0  0  0  0  0  0  0  0
  145.2670  162.1810  134.8300 O   0  0  0  0  0  0  0  0  0  0  0  0
  145.3220  158.8310  133.6060 N   0  0  0  0  0  0  0  0  0  0  0  0
  144.0070  158.2760  133.7730 C   0  0  0  0  0  0  0  0  0  0  0  0
  143.8190  157.3280  134.5840 O   0  0  0  0  0  0  0  0  0  0  0  0
  142.9390  158.7780  133.0180 O   0  0  0  0  0  0  0  0  0  0  0  0
  141.5780  158.7220  133.4470 C   0  0  2  0  0  0  0  0  0  0  0  0
  140.9580  157.4130  132.9670 C   0  0  0  0  0  0  0  0  0  0  0  0
  140.8080  159.8880  132.8980 C   0  0  0  0  0  0  0  0  0  0  0  0
  140.9850  161.0410  133.3690 O   0  0  0  0  0  0  0  0  0  0  0  0
  139.8740  159.6950  131.8870 O   0  0  0  0  0  0  0  0  0  0  0  0
  146.4450  158.1620  133.2560 C   0  0  0  0  0  0  0  0  0  0  0  0
  146.6010  156.7930  133.0030 C   0  0  0  0  0  0  0  0  0  0  0  0
  148.3022  154.3977  134.3833 H   0  0  0  0  0  0  0  0  0  0  0  0
  147.8211  153.0610  133.2840 H   0  0  0  0  0  0  0  0  0  0  0  0
  149.5152  153.6582  133.2840 H   0  0  0  0  0  0  0  0  0  0  0  0
  148.0440  154.5770  131.3740 H   0  0  0  0  0  0  0  0  0  0  0  0
  149.9513  156.8642  132.2175 H   0  0  0  0  0  0  0  0  0  0  0  0
  149.5963  159.3163  132.6437 H   0  0  0  0  0  0  0  0  0  0  0  0
  147.6075  161.2367  133.3523 H   0  0  0  0  0  0  0  0  0  0  0  0
  143.0080  160.5320  133.1520 H   0  0  0  0  0  0  0  0  0  0  0  0
  142.8380  162.1150  133.9820 H   0  0  0  0  0  0  0  0  0  0  0  0
  141.5402  158.7690  134.5453 H   0  0  0  0  0  0  0  0  0  0  0  0
  140.6694  156.8036  133.8361 H   0  0  0  0  0  0  0  0  0  0  0  0
  140.0671  157.6303  132.3594 H   0  0  0  0  0  0  0  0  0  0  0  0
  141.6905  156.8614  132.3594 H   0  0  0  0  0  0  0  0  0  0  0  0
  145.7490  156.1033  133.0950 H   0  0  0  0  0  0  0  0  0  0  0  0
  1  2  1  0
  2  3  1  0
  3  4  2  0
  4  5  1  0
  5  6  2  0
  6  7  1  0
  7  8  2  0
  8  9  1  0
  9 10  1  0
  9 11  2  0
  8 12  1  0
 12 13  1  0
 13 14  2  0
 13 15  1  0
 15 16  1  0
 16 17  1  0
 16 18  1  0
 18 19  2  0
 18 20  1  0
 12 21  1  0
 21 22  2  0
 22  3  1  0
 21  6  1  0
  1 23  1  0
  1 24  1  0
  1 25  1  0
  2 26  1  0
  4 27  1  0
  5 28  1  0
  7 29  1  0
 10 30  1  0
 10 31  1  0
 16 32  1  1
 17 33  1  0
 17 34  1  0
 17 35  1  0
 22 36  1  0
M  CHG  1  20  -1
M  END
>  <UniqueID>  (78) 
78

>  <SMILES>  (78) 
CNc1ccc2cc(C(N)=O)n(C(=O)O[C@H](C)C(=O)[O-])c2c1

>  <Energy>  (78) 
68.66717179132483

>  <Genealogy>  (78) 
CNc1ccc2cc(C(N)=O)n(C(=O)OC(C)C(=O)[O-])c2c1 (protonated)
CNc1ccc2cc(C(N)=O)n(C(=O)O[C@H](C)C(=O)[O-])c2c1 (chirality)
CNc1ccc2cc(C(N)=O)n(C(=O)O[C@H](C)C(=O)[O-])c2c1 (3D coordinates assigned)
CNc1ccc2cc(C(N)=O)n(C(=O)O[C@H](C)C(=O)[O-])c2c1 (optimized conformer: 68.66717179132483 kcal/mol)

>  <smiles>  (78) 
CNc1ccc2cc(C(N)=O)n(C(=O)OC(C)C(=O)O)c2c1

>  <score_type>  (78) 
oracle

>  <origin>  (78) 
adg

>  <m_score__min__energy>  (78) 
-6.4400000000000004

>  <m_primary>  (78) 
energy

$$$$
78:0
     RDKit          3D

 36 37  0  0  0  0  0  0  0  0999 V2000
  149.6070  162.3440  130.1670 C   0  0  0  0  0  0  0  0  0  0  0  0
  149.1560  160.6400  130.4320 S   0  0  0  0  0  0  0  0  0  0  0  0
  149.7750  159.8040  129.3480 O   0  0  0  0  0  0  0  0  0  0  0  0
  147.6620  160.4890  130.3670 O   0  0  0  0  0  0  0  0  0  0  0  0
  149.7510  160.1130  131.9300 O   0  0  0  0  0  0  0  0  0  0  0  0
  148.8440  159.1930  132.4970 C   0  0  0  0  0  0  0  0  0  0  0  0
  147.8910  159.9370  133.4330 C   0  0  0  0  0  0  0  0  0  0  0  0
  146.5410  159.9910  132.8670 N   0  0  0  0  0  0  0  0  0  0  0  0
  145.4880  159.0720  133.2080 C   0  0  0  0  0  0  0  0  0  0  0  0
  145.6640  157.6670  133.0890 C   0  0  0  0  0  0  0  0  0  0  0  0
  144.6190  156.7850  133.4090 C   0  0  0  0  0  0  0  0  0  0  0  0
  143.4140  157.3290  133.8400 C   0  0  0  0  0  0  0  0  0  0  0  0
  142.2500  156.7050  134.2250 C   0  0  0  0  0  0  0  0  0  0  0  0
  141.3730  157.7340  134.5640 C   0  0  0  0  0  0  0  0  0  0  0  0
  139.9660  157.5070  134.9540 C   0  0  0  0  0  0  0  0  0  0  0  0
  139.4940  157.9820  136.2130 N   0  0  0  0  0  0  0  0  0  0  0  0
  139.1830  156.8680  134.2050 O   0  0  0  0  0  0  0  0  0  0  0  0
  141.9750  158.9470  134.4000 N   0  0  0  0  0  0  0  0  0  0  0  0
  141.4360  160.2470  134.6910 C   0  0  0  0  0  0  0  0  0  0  0  0
  140.9280  160.4900  135.8160 O   0  0  0  0  0  0  0  0  0  0  0  0
  141.4910  161.2580  133.7380 O   0  0  0  0  0  0  0  0  0  0  0  0
  143.2240  158.6810  133.9550 C   0  0  0  0  0  0  0  0  0  0  0  0
  144.2550  159.5810  133.6670 C   0  0  0  0  0  0  0  0  0  0  0  0
  149.7392  162.8436  131.1381 H   0  0  0  0  0  0  0  0  0  0  0  0
  150.5483  162.3902  129.5997 H   0  0  0  0  0  0  0  0  0  0  0  0
  148.8118  162.8498  129.5997 H   0  0  0  0  0  0  0  0  0  0  0  0
  148.2675  158.7046  131.6975 H   0  0  0  0  0  0  0  0  0  0  0  0
  149.3978  158.4303  133.0641 H   0  0  0  0  0  0  0  0  0  0  0  0
  147.8555  159.4150  134.4006 H   0  0  0  0  0  0  0  0  0  0  0  0
  148.2587  160.9652  133.5653 H   0  0  0  0  0  0  0  0  0  0  0  0
  146.3780  160.6640  132.0830 H   0  0  0  0  0  0  0  0  0  0  0  0
  146.6282  157.2663  132.7429 H   0  0  0  0  0  0  0  0  0  0  0  0
  144.7498  155.6963  133.3213 H   0  0  0  0  0  0  0  0  0  0  0  0
  142.0531  155.6233  134.2583 H   0  0  0  0  0  0  0  0  0  0  0  0
  139.4410  159.0050  136.4160 H   0  0  0  0  0  0  0  0  0  0  0  0
  144.1075  160.6634  133.7958 H   0  0  0  0  0  0  0  0  0  0  0  0
  1  2  1  0
  2  3  2  0
  2  4  2  0
  2  5  1  0
  5  6  1  0
  6  7  1  0
  7  8  1  0
  8  9  1  0
  9 10  2  0
 10 11  1  0
 11 12  2  0
 12 13  1  0
 13 14  2  0
 14 15  1  0
 15 16  1  0
 15 17  2  0
 14 18  1  0
 18 19  1  0
 19 20  2  0
 19 21  1  0
 18 22  1  0
 22 23  2  0
 23  9  1  0
 22 12  1  0
  1 24  1  0
  1 25  1  0
  1 26  1  0
  6 27  1  0
  6 28  1  0
  7 29  1  0
  7 30  1  0
  8 31  1  0
 10 32  1  0
 11 33  1  0
 13 34  1  0
 16 35  1  0
 23 36  1  0
M  CHG  2  16  -1  21  -1
M  END
>  <UniqueID>  (79) 
79

>  <SMILES>  (79) 
CS(=O)(=O)OCCNc1ccc2cc(C([NH-])=O)n(C(=O)[O-])c2c1

>  <Energy>  (79) 
69.8170855622511

>  <Genealogy>  (79) 
CS(=O)(=O)OCCNc1ccc2cc(C([NH-])=O)n(C(=O)[O-])c2c1 (protonated)
CS(=O)(=O)OCCNc1ccc2cc(C([NH-])=O)n(C(=O)[O-])c2c1 (3D coordinates assigned)
CS(=O)(=O)OCCNc1ccc2cc(C([NH-])=O)n(C(=O)[O-])c2c1 (optimized conformer: 69.8170855622511 kcal/mol)

>  <smiles>  (79) 
CS(=O)(=O)OCCNc1ccc2cc(C(N)=O)n(C(=O)O)c2c1

>  <score_type>  (79) 
oracle

>  <origin>  (79) 
adg

>  <m_score__min__energy>  (79) 
-7.0300000000000002

>  <m_primary>  (79) 
energy

$$$$
79:0
     RDKit          3D

 40 41  0  0  0  0  0  0  0  0999 V2000
  136.4480  160.1220  130.3500 C   0  0  0  0  0  0  0  0  0  0  0  0
  137.8480  160.1130  130.1020 O   0  0  0  0  0  0  0  0  0  0  0  0
  138.7530  159.4250  130.9160 C   0  0  0  0  0  0  0  0  0  0  0  0
  139.9960  159.5300  130.7270 O   0  0  0  0  0  0  0  0  0  0  0  0
  138.2400  158.5590  132.0210 C   0  0  0  0  0  0  0  0  0  0  0  0
  139.3650  158.1470  132.9290 C   0  0  0  0  0  0  0  0  0  0  0  0
  140.0570  159.1200  133.6930 C   0  0  0  0  0  0  0  0  0  0  0  0
  141.1180  158.7440  134.5370 C   0  0  0  0  0  0  0  0  0  0  0  0
  141.4710  157.3980  134.5800 C   0  0  0  0  0  0  0  0  0  0  0  0
  142.4600  156.7590  135.2950 C   0  0  0  0  0  0  0  0  0  0  0  0
  142.3760  155.4170  134.9260 C   0  0  0  0  0  0  0  0  0  0  0  0
  143.3010  154.3720  135.4180 C   0  0  0  0  0  0  0  0  0  0  0  0
  142.9190  153.4850  136.4660 N   0  0  0  0  0  0  0  0  0  0  0  0
  144.4400  154.2510  134.8960 O   0  0  0  0  0  0  0  0  0  0  0  0
  141.3750  155.2350  134.0220 N   0  0  0  0  0  0  0  0  0  0  0  0
  140.9900  154.0180  133.3640 C   0  0  0  0  0  0  0  0  0  0  0  0
  139.9260  153.9840  132.6900 O   0  0  0  0  0  0  0  0  0  0  0  0
  141.8180  152.8050  133.4670 C   0  0  0  0  0  0  0  0  0  0  0  0
  141.5520  151.8870  134.3560 C   0  0  0  0  0  0  0  0  0  0  0  0
  141.2670  151.0140  135.2320 N   0  0  0  0  0  0  0  0  0  0  0  0
  140.6230  151.4030  136.3840 O   0  0  0  0  0  0  0  0  0  0  0  0
  141.2280  151.2140  137.6510 C   0  0  0  0  0  0  0  0  0  0  0  0
  140.2080  150.6890  138.6050 C   0  0  0  0  0  0  0  0  0  0  0  0
  139.2510  149.9860  138.1870 O   0  0  0  0  0  0  0  0  0  0  0  0
  140.3420  150.9310  139.9650 O   0  0  0  0  0  0  0  0  0  0  0  0
  140.8280  156.4530  133.8250 C   0  0  0  0  0  0  0  0  0  0  0  0
  139.7610  156.7930  132.9900 C   0  0  0  0  0  0  0  0  0  0  0  0
  136.2679  160.1232  131.4352 H   0  0  0  0  0  0  0  0  0  0  0  0
  136.0023  161.0230  129.9034 H   0  0  0  0  0  0  0  0  0  0  0  0
  135.9907  159.2268  129.9034 H   0  0  0  0  0  0  0  0  0  0  0  0
  137.4915  159.1179  132.6018 H   0  0  0  0  0  0  0  0  0  0  0  0
  137.7843  157.6574  131.5856 H   0  0  0  0  0  0  0  0  0  0  0  0
  139.7621  160.1776  133.6254 H   0  0  0  0  0  0  0  0  0  0  0  0
  141.6519  159.4901  135.1439 H   0  0  0  0  0  0  0  0  0  0  0  0
  143.1664  157.2116  136.0064 H   0  0  0  0  0  0  0  0  0  0  0  0
  142.4340  152.5840  136.2580 H   0  0  0  0  0  0  0  0  0  0  0  0
  142.6715  152.6706  132.7862 H   0  0  0  0  0  0  0  0  0  0  0  0
  142.0539  150.4931  137.5611 H   0  0  0  0  0  0  0  0  0  0  0  0
  141.6225  152.1722  138.0202 H   0  0  0  0  0  0  0  0  0  0  0  0
  139.2429  156.0261  132.3956 H   0  0  0  0  0  0  0  0  0  0  0  0
  1  2  1  0
  2  3  1  0
  3  4  2  0
  3  5  1  0
  5  6  1  0
  6  7  2  0
  7  8  1  0
  8  9  2  0
  9 10  1  0
 10 11  2  0
 11 12  1  0
 12 13  1  0
 12 14  2  0
 11 15  1  0
 15 16  1  0
 16 17  2  0
 16 18  1  0
 18 19  2  0
 19 20  2  0
 20 21  1  0
 21 22  1  0
 22 23  1  0
 23 24  2  0
 23 25  1  0
 15 26  1  0
 26 27  2  0
 27  6  1  0
 26  9  1  0
  1 28  1  0
  1 29  1  0
  1 30  1  0
  5 31  1  0
  5 32  1  0
  7 33  1  0
  8 34  1  0
 10 35  1  0
 13 36  1  0
 18 37  1  0
 22 38  1  0
 22 39  1  0
 27 40  1  0
M  CHG  2  13  -1  25  -1
M  END
>  <UniqueID>  (80) 
80

>  <SMILES>  (80) 
COC(=O)Cc1ccc2cc(C([NH-])=O)n(C(=O)C=C=NOCC(=O)[O-])c2c1

>  <Energy>  (80) 
63.85464743203215

>  <Genealogy>  (80) 
COC(=O)Cc1ccc2cc(C([NH-])=O)n(C(=O)C=C=NOCC(=O)[O-])c2c1 (protonated)
COC(=O)Cc1ccc2cc(C([NH-])=O)n(C(=O)C=C=NOCC(=O)[O-])c2c1 (3D coordinates assigned)
COC(=O)Cc1ccc2cc(C([NH-])=O)n(C(=O)C=C=NOCC(=O)[O-])c2c1 (optimized conformer: 63.85464743203215 kcal/mol)

>  <smiles>  (80) 
COC(=O)Cc1ccc2cc(C(N)=O)n(C(=O)C=C=NOCC(=O)O)c2c1

>  <score_type>  (80) 
oracle

>  <origin>  (80) 
adg

>  <m_score__min__energy>  (80) 
-7.1699999999999999

>  <m_primary>  (80) 
energy

$$$$
80:0
     RDKit          3D

 36 37  0  0  0  0  0  0  0  0999 V2000
  142.6980  160.8100  134.0310 N   0  0  0  0  0  0  0  0  0  0  0  0
  144.0540  161.1860  133.8070 C   0  0  0  0  0  0  0  0  0  0  0  0
  144.3490  162.4080  133.7260 O   0  0  0  0  0  0  0  0  0  0  0  0
  145.1050  160.1660  133.6140 C   0  0  0  0  0  0  0  0  0  0  0  0
  146.4590  160.4780  133.5060 C   0  0  0  0  0  0  0  0  0  0  0  0
  147.0900  159.2820  133.2500 C   0  0  0  0  0  0  0  0  0  0  0  0
  148.4430  159.0060  133.0710 C   0  0  0  0  0  0  0  0  0  0  0  0
  148.8190  157.6700  132.8570 C   0  0  0  0  0  0  0  0  0  0  0  0
  147.8440  156.6420  132.8250 C   0  0  0  0  0  0  0  0  0  0  0  0
  148.2630  155.2130  132.6470 C   0  0  0  0  0  0  0  0  0  0  0  0
  147.8440  154.2760  134.1020 Cl  0  0  0  0  0  0  0  0  0  0  0  0
  146.4820  156.9590  133.0260 C   0  0  0  0  0  0  0  0  0  0  0  0
  146.1330  158.3010  133.2170 C   0  0  0  0  0  0  0  0  0  0  0  0
  144.9070  158.8270  133.4410 N   0  0  0  0  0  0  0  0  0  0  0  0
  143.6780  158.0930  133.5570 C   0  0  0  0  0  0  0  0  0  0  0  0
  143.0500  157.7510  132.5180 O   0  0  0  0  0  0  0  0  0  0  0  0
  143.1680  157.7920  134.8250 O   0  0  0  0  0  0  0  0  0  0  0  0
  142.0280  156.9600  135.0500 C   0  0  0  0  0  0  0  0  0  0  0  0
  140.7220  157.7680  134.9570 C   0  0  2  0  0  0  0  0  0  0  0  0
  140.7390  158.5740  133.8070 O   0  0  0  0  0  0  0  0  0  0  0  0
  140.4920  158.6580  136.1830 C   0  0  0  0  0  0  0  0  0  0  0  0
  141.3820  159.7390  136.1730 O   0  0  0  0  0  0  0  0  0  0  0  0
  142.4450  159.8270  134.2740 H   0  0  0  0  0  0  0  0  0  0  0  0
  146.9246  161.4697  133.6045 H   0  0  0  0  0  0  0  0  0  0  0  0
  149.1939  159.8094  133.0964 H   0  0  0  0  0  0  0  0  0  0  0  0
  149.8803  157.4191  132.7128 H   0  0  0  0  0  0  0  0  0  0  0  0
  147.7444  154.7862  131.7759 H   0  0  0  0  0  0  0  0  0  0  0  0
  149.3507  155.1705  132.4883 H   0  0  0  0  0  0  0  0  0  0  0  0
  145.7148  156.1707  133.0323 H   0  0  0  0  0  0  0  0  0  0  0  0
  142.0110  156.1623  134.2928 H   0  0  0  0  0  0  0  0  0  0  0  0
  142.1023  156.5336  136.0613 H   0  0  0  0  0  0  0  0  0  0  0  0
  139.8993  157.0394  134.9087 H   0  0  0  0  0  0  0  0  0  0  0  0
  141.6620  158.9340  133.7230 H   0  0  0  0  0  0  0  0  0  0  0  0
  139.4598  159.0378  136.1671 H   0  0  0  0  0  0  0  0  0  0  0  0
  140.6612  158.0638  137.0931 H   0  0  0  0  0  0  0  0  0  0  0  0
  141.9880  159.5900  135.4010 H   0  0  0  0  0  0  0  0  0  0  0  0
  1  2  1  0
  2  3  2  0
  2  4  1  0
  4  5  2  0
  5  6  1  0
  6  7  2  0
  7  8  1  0
  8  9  2  0
  9 10  1  0
 10 11  1  0
  9 12  1  0
 12 13  2  0
 13 14  1  0
 14 15  1  0
 15 16  2  0
 15 17  1  0
 17 18  1  0
 18 19  1  0
 19 20  1  0
 19 21  1  0
 21 22  1  0
 14  4  1  0
 13  6  1  0
  1 23  1  0
  5 24  1  0
  7 25  1  0
  8 26  1  0
 10 27  1  0
 10 28  1  0
 12 29  1  0
 18 30  1  0
 18 31  1  0
 19 32  1  6
 20 33  1  0
 21 34  1  0
 21 35  1  0
 22 36  1  0
M  CHG  1   1  -1
M  END
>  <UniqueID>  (81) 
81

>  <SMILES>  (81) 
[NH-]C(=O)c1cc2ccc(CCl)cc2n1C(=O)OC[C@H](O)CO

>  <Energy>  (81) 
70.34422806177116

>  <Genealogy>  (81) 
[NH-]C(=O)c1cc2ccc(CCl)cc2n1C(=O)OCC(O)CO (protonated)
[NH-]C(=O)c1cc2ccc(CCl)cc2n1C(=O)OC[C@H](O)CO (chirality)
[NH-]C(=O)c1cc2ccc(CCl)cc2n1C(=O)OC[C@H](O)CO (3D coordinates assigned)
[NH-]C(=O)c1cc2ccc(CCl)cc2n1C(=O)OC[C@H](O)CO (optimized conformer: 70.34422806177116 kcal/mol)

>  <smiles>  (81) 
NC(=O)c1cc2ccc(CCl)cc2n1C(=O)OCC(O)CO

>  <score_type>  (81) 
oracle

>  <origin>  (81) 
adg

>  <m_score__min__energy>  (81) 
-4.5999999999999996

>  <m_primary>  (81) 
energy

$$$$
81:0
     RDKit          3D

 37 38  0  0  0  0  0  0  0  0999 V2000
  141.8480  159.6830  132.7180 N   0  0  0  0  0  0  0  0  0  0  0  0
  143.0180  160.1080  133.4190 C   0  0  0  0  0  0  0  0  0  0  0  0
  142.9730  161.1630  134.1040 O   0  0  0  0  0  0  0  0  0  0  0  0
  144.2580  159.3050  133.3780 C   0  0  0  0  0  0  0  0  0  0  0  0
  145.5210  159.8370  133.1210 C   0  0  0  0  0  0  0  0  0  0  0  0
  146.3680  158.7540  133.0680 C   0  0  0  0  0  0  0  0  0  0  0  0
  147.7430  158.7050  132.8620 C   0  0  0  0  0  0  0  0  0  0  0  0
  148.3690  157.4480  132.8920 C   0  0  0  0  0  0  0  0  0  0  0  0
  147.6150  156.2660  133.1150 C   0  0  0  0  0  0  0  0  0  0  0  0
  148.3070  154.9310  133.2080 C   0  0  0  0  0  0  0  0  0  0  0  0
  149.5610  154.9870  132.6220 F   0  0  0  0  0  0  0  0  0  0  0  0
  147.5720  153.9540  132.5600 F   0  0  0  0  0  0  0  0  0  0  0  0
  148.4470  154.5810  134.5380 F   0  0  0  0  0  0  0  0  0  0  0  0
  146.2220  156.3620  133.3440 C   0  0  0  0  0  0  0  0  0  0  0  0
  145.6220  157.6260  133.2900 C   0  0  0  0  0  0  0  0  0  0  0  0
  144.3240  157.9490  133.4830 N   0  0  0  0  0  0  0  0  0  0  0  0
  143.2570  157.0460  133.8180 C   0  0  0  0  0  0  0  0  0  0  0  0
  143.2980  156.3950  134.8980 O   0  0  0  0  0  0  0  0  0  0  0  0
  142.1630  156.9100  132.9550 O   0  0  0  0  0  0  0  0  0  0  0  0
  140.8190  156.8150  133.4200 C   0  0  0  0  0  0  0  0  0  0  0  0
  140.1290  158.0390  133.1820 O   0  0  0  0  0  0  0  0  0  0  0  0
  138.7460  158.1040  132.9900 C   0  0  0  0  0  0  0  0  0  0  0  0
  137.9610  157.4480  133.7280 O   0  0  0  0  0  0  0  0  0  0  0  0
  138.1950  159.0010  131.9300 C   0  0  0  0  0  0  0  0  0  0  0  0
  139.2560  159.9480  131.4730 C   0  0  0  0  0  0  0  0  0  0  0  0
  139.2240  161.1560  131.8310 O   0  0  0  0  0  0  0  0  0  0  0  0
  140.3110  159.4880  130.6970 O   0  0  0  0  0  0  0  0  0  0  0  0
  141.8630  158.8410  132.1000 H   0  0  0  0  0  0  0  0  0  0  0  0
  140.9660  160.2370  132.7850 H   0  0  0  0  0  0  0  0  0  0  0  0
  145.7842  160.8968  132.9888 H   0  0  0  0  0  0  0  0  0  0  0  0
  148.3222  159.6225  132.6812 H   0  0  0  0  0  0  0  0  0  0  0  0
  149.4564  157.3786  132.7409 H   0  0  0  0  0  0  0  0  0  0  0  0
  145.6241  155.4642  133.5595 H   0  0  0  0  0  0  0  0  0  0  0  0
  140.3070  155.9997  132.8879 H   0  0  0  0  0  0  0  0  0  0  0  0
  140.8264  156.6110  134.5009 H   0  0  0  0  0  0  0  0  0  0  0  0
  137.8542  158.3944  131.0780 H   0  0  0  0  0  0  0  0  0  0  0  0
  137.3478  159.5714  132.3385 H   0  0  0  0  0  0  0  0  0  0  0  0
  1  2  1  0
  2  3  2  0
  2  4  1  0
  4  5  2  0
  5  6  1  0
  6  7  2  0
  7  8  1  0
  8  9  2  0
  9 10  1  0
 10 11  1  0
 10 12  1  0
 10 13  1  0
  9 14  1  0
 14 15  2  0
 15 16  1  0
 16 17  1  0
 17 18  2  0
 17 19  1  0
 19 20  1  0
 20 21  1  0
 21 22  1  0
 22 23  2  0
 22 24  1  0
 24 25  1  0
 25 26  2  0
 25 27  1  0
 16  4  1  0
 15  6  1  0
  1 28  1  0
  1 29  1  0
  5 30  1  0
  7 31  1  0
  8 32  1  0
 14 33  1  0
 20 34  1  0
 20 35  1  0
 24 36  1  0
 24 37  1  0
M  CHG  1  27  -1
M  END
>  <UniqueID>  (82) 
82

>  <SMILES>  (82) 
NC(=O)c1cc2ccc(C(F)(F)F)cc2n1C(=O)OCOC(=O)CC(=O)[O-]

>  <Energy>  (82) 
70.1034663153271

>  <Genealogy>  (82) 
NC(=O)c1cc2ccc(C(F)(F)F)cc2n1C(=O)OCOC(=O)CC(=O)[O-] (protonated)
NC(=O)c1cc2ccc(C(F)(F)F)cc2n1C(=O)OCOC(=O)CC(=O)[O-] (3D coordinates assigned)
NC(=O)c1cc2ccc(C(F)(F)F)cc2n1C(=O)OCOC(=O)CC(=O)[O-] (optimized conformer: 70.1034663153271 kcal/mol)

>  <smiles>  (82) 
NC(=O)c1cc2ccc(C(F)(F)F)cc2n1C(=O)OCOC(=O)CC(=O)O

>  <score_type>  (82) 
oracle

>  <origin>  (82) 
adg

>  <m_score__min__energy>  (82) 
-6.2400000000000002

>  <m_primary>  (82) 
energy

$$$$
83:0
     RDKit          3D

 45 47  0  0  0  0  0  0  0  0999 V2000
  138.1090  160.0590  130.7020 C   0  0  0  0  0  0  0  0  0  0  0  0
  137.9660  158.8900  131.4990 O   0  0  0  0  0  0  0  0  0  0  0  0
  138.8220  158.5870  132.5610 C   0  0  0  0  0  0  0  0  0  0  0  0
  140.1450  159.0360  132.5260 C   0  0  0  0  0  0  0  0  0  0  0  0
  141.0160  158.7330  133.5880 C   0  0  0  0  0  0  0  0  0  0  0  0
  142.4250  159.1990  133.5670 C   0  0  0  0  0  0  0  0  0  0  0  0
  142.7320  160.5730  133.7550 C   0  0  0  0  0  0  0  0  0  0  0  0
  144.0650  161.0210  133.7490 C   0  0  0  0  0  0  0  0  0  0  0  0
  145.0690  160.0780  133.5550 C   0  0  0  0  0  0  0  0  0  0  0  0
  146.4390  160.2310  133.5160 C   0  0  0  0  0  0  0  0  0  0  0  0
  146.9490  158.9470  133.3060 C   0  0  0  0  0  0  0  0  0  0  0  0
  148.3880  158.6060  133.2020 C   0  0  0  0  0  0  0  0  0  0  0  0
  148.8580  157.2800  133.4600 N   0  0  0  0  0  0  0  0  0  0  0  0
  149.2230  159.4930  132.8800 O   0  0  0  0  0  0  0  0  0  0  0  0
  145.9290  158.0480  133.2270 N   0  0  0  0  0  0  0  0  0  0  0  0
  146.0200  156.6350  133.0100 C   0  0  0  0  0  0  0  0  0  0  0  0
  146.8300  156.1990  132.1460 O   0  0  0  0  0  0  0  0  0  0  0  0
  145.1960  155.7180  133.7570 N   0  0  0  0  0  0  0  0  0  0  0  0
  144.1550  154.9570  133.0600 C   0  0  0  0  0  0  0  0  0  0  0  0
  145.3690  155.5600  135.2080 C   0  0  0  0  0  0  0  0  0  0  0  0
  146.6680  154.8810  135.5110 C   0  0  0  0  0  0  0  0  0  0  0  0
  147.7510  155.3660  135.0880 O   0  0  0  0  0  0  0  0  0  0  0  0
  146.6870  153.7260  136.2820 O   0  0  0  0  0  0  0  0  0  0  0  0
  144.7900  158.7520  133.3730 C   0  0  0  0  0  0  0  0  0  0  0  0
  143.4780  158.2740  133.3680 C   0  0  0  0  0  0  0  0  0  0  0  0
  140.5260  157.9810  134.6690 C   0  0  0  0  0  0  0  0  0  0  0  0
  139.1970  157.5520  134.6680 C   0  0  0  0  0  0  0  0  0  0  0  0
  138.3810  157.8600  133.6260 N   0  0  0  0  0  0  0  0  0  0  0  0
  138.2164  160.9374  131.3554 H   0  0  0  0  0  0  0  0  0  0  0  0
  139.0021  159.9629  130.0670 H   0  0  0  0  0  0  0  0  0  0  0  0
  137.2191  160.1810  130.0670 H   0  0  0  0  0  0  0  0  0  0  0  0
  140.5045  159.6252  131.6695 H   0  0  0  0  0  0  0  0  0  0  0  0
  141.9168  161.2957  133.9072 H   0  0  0  0  0  0  0  0  0  0  0  0
  144.3063  162.0845  133.8933 H   0  0  0  0  0  0  0  0  0  0  0  0
  147.0091  161.1652  133.6267 H   0  0  0  0  0  0  0  0  0  0  0  0
  148.2190  156.5210  133.7810 H   0  0  0  0  0  0  0  0  0  0  0  0
  149.8730  157.0590  133.3570 H   0  0  0  0  0  0  0  0  0  0  0  0
  143.4965  154.4756  133.7980 H   0  0  0  0  0  0  0  0  0  0  0  0
  143.5636  155.6372  132.4295 H   0  0  0  0  0  0  0  0  0  0  0  0
  144.6237  154.1871  132.4295 H   0  0  0  0  0  0  0  0  0  0  0  0
  145.3596  156.5518  135.6836 H   0  0  0  0  0  0  0  0  0  0  0  0
  144.5461  154.9436  135.5990 H   0  0  0  0  0  0  0  0  0  0  0  0
  143.2679  157.2054  133.2133 H   0  0  0  0  0  0  0  0  0  0  0  0
  141.1864  157.7312  135.5125 H   0  0  0  0  0  0  0  0  0  0  0  0
  138.8098  156.9633  135.5127 H   0  0  0  0  0  0  0  0  0  0  0  0
  1  2  1  0
  2  3  1  0
  3  4  2  0
  4  5  1  0
  5  6  1  0
  6  7  2  0
  7  8  1  0
  8  9  2  0
  9 10  1  0
 10 11  2  0
 11 12  1  0
 12 13  1  0
 12 14  2  0
 11 15  1  0
 15 16  1  0
 16 17  2  0
 16 18  1  0
 18 19  1  0
 18 20  1  0
 20 21  1  0
 21 22  2  0
 21 23  1  0
 15 24  1  0
 24 25  2  0
  5 26  2  0
 26 27  1  0
 27 28  2  0
 28  3  1  0
 25  6  1  0
 24  9  1  0
  1 29  1  0
  1 30  1  0
  1 31  1  0
  4 32  1  0
  7 33  1  0
  8 34  1  0
 10 35  1  0
 13 36  1  0
 13 37  1  0
 19 38  1  0
 19 39  1  0
 19 40  1  0
 20 41  1  0
 20 42  1  0
 25 43  1  0
 26 44  1  0
 27 45  1  0
M  CHG  1  23  -1
M  END
>  <UniqueID>  (83) 
83

>  <SMILES>  (83) 
COc1cc(-c2ccc3cc(C(N)=O)n(C(=O)N(C)CC(=O)[O-])c3c2)ccn1

>  <Energy>  (83) 
86.86525878319834

>  <Genealogy>  (83) 
COc1cc(-c2ccc3cc(C(N)=O)n(C(=O)N(C)CC(=O)[O-])c3c2)ccn1 (protonated)
COc1cc(-c2ccc3cc(C(N)=O)n(C(=O)N(C)CC(=O)[O-])c3c2)ccn1 (3D coordinates assigned)
COc1cc(-c2ccc3cc(C(N)=O)n(C(=O)N(C)CC(=O)[O-])c3c2)ccn1 (optimized conformer: 86.86525878319834 kcal/mol)

>  <smiles>  (83) 
COc1cc(-c2ccc3cc(C(N)=O)n(C(=O)N(C)CC(=O)O)c3c2)ccn1

>  <score_type>  (83) 
oracle

>  <origin>  (83) 
adg

>  <m_score__min__energy>  (83) 
-8.2300000000000004

>  <m_primary>  (83) 
energy

$$$$
84:0
     RDKit          3D

 50 51  0  0  0  0  0  0  0  0999 V2000
  146.9780  157.2050  133.7450 C   0  0  0  0  0  0  0  0  0  0  0  0
  146.4020  155.9290  134.1780 N   0  0  0  0  0  0  0  0  0  0  0  0
  145.0020  155.6020  133.8650 C   0  0  0  0  0  0  0  0  0  0  0  0
  144.8140  154.0960  133.6200 C   0  0  0  0  0  0  0  0  0  0  0  0
  143.8430  153.7980  132.4760 C   0  0  0  0  0  0  0  0  0  0  0  0
  142.5180  154.1610  132.8510 O   0  0  0  0  0  0  0  0  0  0  0  0
  141.9910  153.9030  134.1180 C   0  0  0  0  0  0  0  0  0  0  0  0
  141.6630  152.7280  134.4440 O   0  0  0  0  0  0  0  0  0  0  0  0
  141.8340  154.9790  135.0540 N   0  0  0  0  0  0  0  0  0  0  0  0
  142.3700  155.0900  136.3030 C   0  0  0  0  0  0  0  0  0  0  0  0
  143.1340  154.0440  137.0130 C   0  0  0  0  0  0  0  0  0  0  0  0
  144.5190  153.8590  136.7260 N   0  0  0  0  0  0  0  0  0  0  0  0
  142.5880  153.3340  137.8980 O   0  0  0  0  0  0  0  0  0  0  0  0
  142.0130  156.3060  136.8810 C   0  0  0  0  0  0  0  0  0  0  0  0
  141.2270  156.9380  135.9440 C   0  0  0  0  0  0  0  0  0  0  0  0
  140.5860  158.1730  135.9990 C   0  0  0  0  0  0  0  0  0  0  0  0
  139.8370  158.5760  134.8810 C   0  0  0  0  0  0  0  0  0  0  0  0
  139.7620  157.7570  133.7240 C   0  0  0  0  0  0  0  0  0  0  0  0
  138.9290  158.1770  132.5390 C   0  0  0  0  0  0  0  0  0  0  0  0
  137.6000  158.3030  132.9050 F   0  0  0  0  0  0  0  0  0  0  0  0
  139.0080  157.2440  131.5200 F   0  0  0  0  0  0  0  0  0  0  0  0
  139.3850  159.3950  132.0710 F   0  0  0  0  0  0  0  0  0  0  0  0
  140.4100  156.5010  133.7170 C   0  0  0  0  0  0  0  0  0  0  0  0
  141.1330  156.1170  134.8520 C   0  0  0  0  0  0  0  0  0  0  0  0
  147.2040  155.0110  134.9430 C   0  0  0  0  0  0  0  0  0  0  0  0
  148.0750  154.3020  134.3660 O   0  0  0  0  0  0  0  0  0  0  0  0
  147.0210  154.9070  136.3260 O   0  0  0  0  0  0  0  0  0  0  0  0
  147.7710  154.0070  137.1380 C   0  0  0  0  0  0  0  0  0  0  0  0
  146.9980  152.8770  137.4650 O   0  0  0  0  0  0  0  0  0  0  0  0
  146.5860  152.9410  139.1220 P   0  0  2  0  0  0  0  0  0  0  0  0
  147.3150  154.1030  139.7580 O   0  0  0  0  0  0  0  0  0  0  0  0
  147.0610  151.5120  139.8920 O   0  0  0  0  0  0  0  0  0  0  0  0
  144.9200  153.1710  139.3180 O   0  0  0  0  0  0  0  0  0  0  0  0
  147.2482  157.8036  134.6274 H   0  0  0  0  0  0  0  0  0  0  0  0
  147.8777  157.0151  133.1413 H   0  0  0  0  0  0  0  0  0  0  0  0
  146.2405  157.7542  133.1413 H   0  0  0  0  0  0  0  0  0  0  0  0
  144.3665  155.9085  134.7090 H   0  0  0  0  0  0  0  0  0  0  0  0
  144.7205  156.1379  132.9465 H   0  0  0  0  0  0  0  0  0  0  0  0
  145.7915  153.6551  133.3751 H   0  0  0  0  0  0  0  0  0  0  0  0
  144.3887  153.6619  134.5369 H   0  0  0  0  0  0  0  0  0  0  0  0
  144.1402  154.3741  131.5873 H   0  0  0  0  0  0  0  0  0  0  0  0
  143.8712  152.7216  132.2513 H   0  0  0  0  0  0  0  0  0  0  0  0
  145.2510  154.1530  137.4100 H   0  0  0  0  0  0  0  0  0  0  0  0
  142.2984  156.6814  137.8748 H   0  0  0  0  0  0  0  0  0  0  0  0
  140.6637  158.8131  136.8902 H   0  0  0  0  0  0  0  0  0  0  0  0
  139.3025  159.5372  134.9024 H   0  0  0  0  0  0  0  0  0  0  0  0
  140.3475  155.8405  132.8396 H   0  0  0  0  0  0  0  0  0  0  0  0
  148.6679  153.6853  136.5884 H   0  0  0  0  0  0  0  0  0  0  0  0
  148.0593  154.5216  138.0665 H   0  0  0  0  0  0  0  0  0  0  0  0
  144.6480  153.7440  138.5570 H   0  0  0  0  0  0  0  0  0  0  0  0
  1  2  1  0
  2  3  1  0
  3  4  1  0
  4  5  1  0
  5  6  1  0
  6  7  1  0
  7  8  2  0
  7  9  1  0
  9 10  1  0
 10 11  1  0
 11 12  1  0
 11 13  2  0
 10 14  2  0
 14 15  1  0
 15 16  2  0
 16 17  1  0
 17 18  2  0
 18 19  1  0
 19 20  1  0
 19 21  1  0
 19 22  1  0
 18 23  1  0
 23 24  2  0
  2 25  1  0
 25 26  2  0
 25 27  1  0
 27 28  1  0
 28 29  1  0
 29 30  1  0
 30 31  2  0
 30 32  1  1
 30 33  1  0
 24  9  1  0
 24 15  1  0
  1 34  1  0
  1 35  1  0
  1 36  1  0
  3 37  1  0
  3 38  1  0
  4 39  1  0
  4 40  1  0
  5 41  1  0
  5 42  1  0
 12 43  1  0
 14 44  1  0
 16 45  1  0
 17 46  1  0
 23 47  1  0
 28 48  1  0
 28 49  1  0
 33 50  1  0
M  CHG  2  12  -1  32  -1
M  END
>  <UniqueID>  (84) 
84

>  <SMILES>  (84) 
CN(CCCOC(=O)n1c(C([NH-])=O)cc2ccc(C(F)(F)F)cc21)C(=O)OCO[P@](=O)([O-])O

>  <Energy>  (84) 
75.90155955698549

>  <Genealogy>  (84) 
CN(CCCOC(=O)n1c(C([NH-])=O)cc2ccc(C(F)(F)F)cc21)C(=O)OCOP(=O)([O-])O (protonated)
CN(CCCOC(=O)n1c(C([NH-])=O)cc2ccc(C(F)(F)F)cc21)C(=O)OCO[P@](=O)([O-])O (chirality)
CN(CCCOC(=O)n1c(C([NH-])=O)cc2ccc(C(F)(F)F)cc21)C(=O)OCO[P@](=O)([O-])O (3D coordinates assigned)
CN(CCCOC(=O)n1c(C([NH-])=O)cc2ccc(C(F)(F)F)cc21)C(=O)OCO[P@](=O)([O-])O (optimized conformer: 75.90155955698549 kcal/mol)

>  <smiles>  (84) 
CN(CCCOC(=O)n1c(C(N)=O)cc2ccc(C(F)(F)F)cc21)C(=O)OCOP(=O)(O)O

>  <score_type>  (84) 
oracle

>  <origin>  (84) 
adg

>  <m_score__min__energy>  (84) 
-6.5700000000000003

>  <m_primary>  (84) 
energy

$$$$
85:0
     RDKit          3D

 35 36  0  0  0  0  0  0  0  0999 V2000
  148.6820  154.5030  132.9890 C   0  0  0  0  0  0  0  0  0  0  0  0
  148.0790  155.5450  133.0210 C   0  0  0  0  0  0  0  0  0  0  0  0
  147.3590  156.7910  133.0590 C   0  0  0  0  0  0  0  0  0  0  0  0
  148.0380  158.0050  132.8080 C   0  0  0  0  0  0  0  0  0  0  0  0
  147.3430  159.2270  132.8310 C   0  0  0  0  0  0  0  0  0  0  0  0
  145.9800  159.1960  133.1120 C   0  0  0  0  0  0  0  0  0  0  0  0
  145.0660  160.2230  133.1730 C   0  0  0  0  0  0  0  0  0  0  0  0
  143.8490  159.6170  133.4840 C   0  0  0  0  0  0  0  0  0  0  0  0
  142.6050  160.3740  133.7350 C   0  0  0  0  0  0  0  0  0  0  0  0
  141.3880  159.7010  134.0470 N   0  0  0  0  0  0  0  0  0  0  0  0
  142.6270  161.6330  133.7210 O   0  0  0  0  0  0  0  0  0  0  0  0
  144.0040  158.2680  133.6000 N   0  0  0  0  0  0  0  0  0  0  0  0
  142.9880  157.2800  133.8320 C   0  0  0  0  0  0  0  0  0  0  0  0
  143.1720  156.3810  134.6980 O   0  0  0  0  0  0  0  0  0  0  0  0
  141.7880  157.3370  133.1150 O   0  0  0  0  0  0  0  0  0  0  0  0
  140.5590  156.8000  133.5960 C   0  0  0  0  0  0  0  0  0  0  0  0
  139.4190  157.1180  132.6310 C   0  0  0  0  0  0  0  0  0  0  0  0
  138.8270  158.3390  133.0080 O   0  0  0  0  0  0  0  0  0  0  0  0
  139.2410  159.5170  131.8470 P   0  0  2  0  0  0  0  0  0  0  0  0
  139.3850  160.8690  132.5100 O   0  0  0  0  0  0  0  0  0  0  0  0
  138.0530  159.6030  130.6440 O   0  0  0  0  0  0  0  0  0  0  0  0
  140.7160  159.0950  131.1350 O   0  0  0  0  0  0  0  0  0  0  0  0
  145.3130  158.0260  133.3740 C   0  0  0  0  0  0  0  0  0  0  0  0
  145.9780  156.7940  133.3410 C   0  0  0  0  0  0  0  0  0  0  0  0
  149.2328  153.5513  132.9598 H   0  0  0  0  0  0  0  0  0  0  0  0
  149.1168  157.9937  132.5933 H   0  0  0  0  0  0  0  0  0  0  0  0
  147.8600  160.1776  132.6332 H   0  0  0  0  0  0  0  0  0  0  0  0
  145.2551  161.2944  133.0109 H   0  0  0  0  0  0  0  0  0  0  0  0
  140.7950  159.2850  133.2930 H   0  0  0  0  0  0  0  0  0  0  0  0
  140.6554  155.7087  133.6945 H   0  0  0  0  0  0  0  0  0  0  0  0
  140.3329  157.2519  134.5731 H   0  0  0  0  0  0  0  0  0  0  0  0
  139.8140  157.2000  131.6076 H   0  0  0  0  0  0  0  0  0  0  0  0
  138.6683  156.3147  132.6646 H   0  0  0  0  0  0  0  0  0  0  0  0
  141.3610  159.0780  131.8860 H   0  0  0  0  0  0  0  0  0  0  0  0
  145.4376  155.8547  133.5299 H   0  0  0  0  0  0  0  0  0  0  0  0
  1  2  3  0
  2  3  1  0
  3  4  2  0
  4  5  1  0
  5  6  2  0
  6  7  1  0
  7  8  2  0
  8  9  1  0
  9 10  1  0
  9 11  2  0
  8 12  1  0
 12 13  1  0
 13 14  2  0
 13 15  1  0
 15 16  1  0
 16 17  1  0
 17 18  1  0
 18 19  1  0
 19 20  2  0
 19 21  1  6
 19 22  1  0
 12 23  1  0
 23 24  2  0
 24  3  1  0
 23  6  1  0
  1 25  1  0
  4 26  1  0
  5 27  1  0
  7 28  1  0
 10 29  1  0
 16 30  1  0
 16 31  1  0
 17 32  1  0
 17 33  1  0
 22 34  1  0
 24 35  1  0
M  CHG  2  10  -1  21  -1
M  END
>  <UniqueID>  (85) 
85

>  <SMILES>  (85) 
C#Cc1ccc2cc(C([NH-])=O)n(C(=O)OCCO[P@](=O)([O-])O)c2c1

>  <Energy>  (85) 
66.85936931451435

>  <Genealogy>  (85) 
C#Cc1ccc2cc(C([NH-])=O)n(C(=O)OCCOP(=O)([O-])O)c2c1 (protonated)
C#Cc1ccc2cc(C([NH-])=O)n(C(=O)OCCO[P@](=O)([O-])O)c2c1 (chirality)
C#Cc1ccc2cc(C([NH-])=O)n(C(=O)OCCO[P@](=O)([O-])O)c2c1 (3D coordinates assigned)
C#Cc1ccc2cc(C([NH-])=O)n(C(=O)OCCO[P@](=O)([O-])O)c2c1 (optimized conformer: 66.85936931451435 kcal/mol)

>  <smiles>  (85) 
C#Cc1ccc2cc(C(N)=O)n(C(=O)OCCOP(=O)(O)O)c2c1

>  <score_type>  (85) 
oracle

>  <origin>  (85) 
adg

>  <m_score__min__energy>  (85) 
-5.8700000000000001

>  <m_primary>  (85) 
energy

$$$$
86:0
     RDKit          3D

 32 33  0  0  0  0  0  0  0  0999 V2000
  148.4480  159.1810  133.5890 C   0  0  0  0  0  0  0  0  0  0  0  0
  147.7270  159.7830  132.6350 C   0  0  0  0  0  0  0  0  0  0  0  0
  146.3430  160.1070  132.8600 N   0  0  0  0  0  0  0  0  0  0  0  0
  145.4070  159.2330  133.5110 C   0  0  0  0  0  0  0  0  0  0  0  0
  145.7850  158.1300  133.9910 O   0  0  0  0  0  0  0  0  0  0  0  0
  144.0370  159.6330  133.6570 N   0  0  0  0  0  0  0  0  0  0  0  0
  143.5430  160.9020  133.7190 C   0  0  0  0  0  0  0  0  0  0  0  0
  144.3430  162.1440  133.7640 C   0  0  0  0  0  0  0  0  0  0  0  0
  145.6470  162.1590  134.3400 N   0  0  0  0  0  0  0  0  0  0  0  0
  143.8570  163.2160  133.3130 O   0  0  0  0  0  0  0  0  0  0  0  0
  142.1510  160.8750  133.7960 C   0  0  0  0  0  0  0  0  0  0  0  0
  141.8080  159.5420  133.7760 C   0  0  0  0  0  0  0  0  0  0  0  0
  140.5560  158.9370  133.8230 C   0  0  0  0  0  0  0  0  0  0  0  0
  140.5000  157.5350  133.7610 C   0  0  0  0  0  0  0  0  0  0  0  0
  141.6850  156.7650  133.6270 C   0  0  0  0  0  0  0  0  0  0  0  0
  141.6150  155.2590  133.5990 C   0  0  0  0  0  0  0  0  0  0  0  0
  141.6050  154.7460  134.8840 F   0  0  0  0  0  0  0  0  0  0  0  0
  142.7060  154.7310  132.9300 F   0  0  0  0  0  0  0  0  0  0  0  0
  140.4580  154.8710  132.9490 F   0  0  0  0  0  0  0  0  0  0  0  0
  142.9400  157.4180  133.6050 C   0  0  0  0  0  0  0  0  0  0  0  0
  142.9650  158.8150  133.6900 C   0  0  0  0  0  0  0  0  0  0  0  0
  148.3120  160.0550  131.3050 C   0  0  0  0  0  0  0  0  0  0  0  0
  147.6120  160.5280  130.3710 O   0  0  0  0  0  0  0  0  0  0  0  0
  149.6540  159.7780  131.0710 O   0  0  0  0  0  0  0  0  0  0  0  0
  149.5053  158.9372  133.4080 H   0  0  0  0  0  0  0  0  0  0  0  0
  147.9831  158.9302  134.5539 H   0  0  0  0  0  0  0  0  0  0  0  0
  146.0180  161.0660  132.6040 H   0  0  0  0  0  0  0  0  0  0  0  0
  146.4920  162.3220  133.7500 H   0  0  0  0  0  0  0  0  0  0  0  0
  141.4706  161.7370  133.8594 H   0  0  0  0  0  0  0  0  0  0  0  0
  139.6385  159.5381  133.9061 H   0  0  0  0  0  0  0  0  0  0  0  0
  139.5258  157.0273  133.8170 H   0  0  0  0  0  0  0  0  0  0  0  0
  143.8734  156.8418  133.5231 H   0  0  0  0  0  0  0  0  0  0  0  0
  1  2  2  0
  2  3  1  0
  3  4  1  0
  4  5  2  0
  4  6  1  0
  6  7  1  0
  7  8  1  0
  8  9  1  0
  8 10  2  0
  7 11  2  0
 11 12  1  0
 12 13  2  0
 13 14  1  0
 14 15  2  0
 15 16  1  0
 16 17  1  0
 16 18  1  0
 16 19  1  0
 15 20  1  0
 20 21  2  0
  2 22  1  0
 22 23  2  0
 22 24  1  0
 21  6  1  0
 21 12  1  0
  1 25  1  0
  1 26  1  0
  3 27  1  0
  9 28  1  0
 11 29  1  0
 13 30  1  0
 14 31  1  0
 20 32  1  0
M  CHG  2   9  -1  24  -1
M  END
>  <UniqueID>  (86) 
86

>  <SMILES>  (86) 
C=C(NC(=O)n1c(C([NH-])=O)cc2ccc(C(F)(F)F)cc21)C(=O)[O-]

>  <Energy>  (86) 
75.36982197728838

>  <Genealogy>  (86) 
C=C(NC(=O)n1c(C([NH-])=O)cc2ccc(C(F)(F)F)cc21)C(=O)[O-] (protonated)
C=C(NC(=O)n1c(C([NH-])=O)cc2ccc(C(F)(F)F)cc21)C(=O)[O-] (3D coordinates assigned)
C=C(NC(=O)n1c(C([NH-])=O)cc2ccc(C(F)(F)F)cc21)C(=O)[O-] (optimized conformer: 75.36982197728838 kcal/mol)

>  <smiles>  (86) 
C=C(NC(=O)n1c(C(N)=O)cc2ccc(C(F)(F)F)cc21)C(=O)O

>  <score_type>  (86) 
oracle

>  <origin>  (86) 
adg

>  <m_score__min__energy>  (86) 
-6.71

>  <m_primary>  (86) 
energy

$$$$
87:0
     RDKit          3D

 47 48  0  0  0  0  0  0  0  0999 V2000
  143.3350  154.3500  134.2110 C   0  0  0  0  0  0  0  0  0  0  0  0
  144.6300  153.7580  133.8630 N   0  0  0  0  0  0  0  0  0  0  0  0
  144.6830  152.5720  132.9960 C   0  0  0  0  0  0  0  0  0  0  0  0
  146.0140  152.5220  132.2410 C   0  0  0  0  0  0  0  0  0  0  0  0
  146.5610  151.0850  132.1600 C   0  0  0  0  0  0  0  0  0  0  0  0
  147.9770  150.9930  132.5930 N   0  0  0  0  0  0  0  0  0  0  0  0
  148.2950  149.6060  132.9730 C   0  0  0  0  0  0  0  0  0  0  0  0
  148.9070  151.4390  131.5360 C   0  0  0  0  0  0  0  0  0  0  0  0
  145.8300  154.3010  134.4550 C   0  0  0  0  0  0  0  0  0  0  0  0
  146.2290  153.8770  135.5740 O   0  0  0  0  0  0  0  0  0  0  0  0
  146.5740  155.3370  133.7990 N   0  0  0  0  0  0  0  0  0  0  0  0
  147.8530  155.2820  133.3300 C   0  0  0  0  0  0  0  0  0  0  0  0
  148.7240  154.0860  133.3270 C   0  0  0  0  0  0  0  0  0  0  0  0
  148.4810  152.9930  134.2100 N   0  0  0  0  0  0  0  0  0  0  0  0
  149.6940  154.0240  132.5250 O   0  0  0  0  0  0  0  0  0  0  0  0
  148.2390  156.5250  132.8300 C   0  0  0  0  0  0  0  0  0  0  0  0
  147.1530  157.3510  133.0230 C   0  0  0  0  0  0  0  0  0  0  0  0
  146.9920  158.7040  132.7450 C   0  0  0  0  0  0  0  0  0  0  0  0
  145.7700  159.3090  133.0930 C   0  0  0  0  0  0  0  0  0  0  0  0
  144.7320  158.5500  133.6950 C   0  0  0  0  0  0  0  0  0  0  0  0
  143.4470  159.2200  134.1150 C   0  0  0  0  0  0  0  0  0  0  0  0
  142.8730  158.5510  135.1820 F   0  0  0  0  0  0  0  0  0  0  0  0
  143.6830  160.5290  134.5020 F   0  0  0  0  0  0  0  0  0  0  0  0
  142.5650  159.2150  133.0520 F   0  0  0  0  0  0  0  0  0  0  0  0
  144.9470  157.1830  133.9860 C   0  0  0  0  0  0  0  0  0  0  0  0
  146.1670  156.6110  133.6170 C   0  0  0  0  0  0  0  0  0  0  0  0
  143.2350  154.3957  135.3055 H   0  0  0  0  0  0  0  0  0  0  0  0
  143.2725  155.3661  133.7943 H   0  0  0  0  0  0  0  0  0  0  0  0
  142.5257  153.7324  133.7943 H   0  0  0  0  0  0  0  0  0  0  0  0
  144.5821  151.6670  133.6132 H   0  0  0  0  0  0  0  0  0  0  0  0
  143.8610  152.6259  132.2670 H   0  0  0  0  0  0  0  0  0  0  0  0
  145.8614  152.9048  131.2211 H   0  0  0  0  0  0  0  0  0  0  0  0
  146.7437  153.1398  132.7850 H   0  0  0  0  0  0  0  0  0  0  0  0
  145.9510  150.4379  132.8074 H   0  0  0  0  0  0  0  0  0  0  0  0
  146.5107  150.7661  131.1085 H   0  0  0  0  0  0  0  0  0  0  0  0
  148.1170  151.5970  133.4390 H   0  0  0  0  0  0  0  0  0  0  0  0
  148.3144  149.5215  134.0696 H   0  0  0  0  0  0  0  0  0  0  0  0
  147.5286  148.9296  132.5666 H   0  0  0  0  0  0  0  0  0  0  0  0
  149.2795  149.3310  132.5666 H   0  0  0  0  0  0  0  0  0  0  0  0
  149.8072  151.8707  131.9979 H   0  0  0  0  0  0  0  0  0  0  0  0
  149.1916  150.5794  130.9114 H   0  0  0  0  0  0  0  0  0  0  0  0
  148.4149  152.1991  130.9114 H   0  0  0  0  0  0  0  0  0  0  0  0
  147.5190  152.6150  134.3450 H   0  0  0  0  0  0  0  0  0  0  0  0
  149.2058  156.7902  132.3773 H   0  0  0  0  0  0  0  0  0  0  0  0
  147.7956  159.2838  132.2675 H   0  0  0  0  0  0  0  0  0  0  0  0
  145.6175  160.3805  132.8967 H   0  0  0  0  0  0  0  0  0  0  0  0
  144.1733  156.5852  134.4901 H   0  0  0  0  0  0  0  0  0  0  0  0
  1  2  1  0
  2  3  1  0
  3  4  1  0
  4  5  1  0
  5  6  1  0
  6  7  1  0
  6  8  1  0
  2  9  1  0
  9 10  2  0
  9 11  1  0
 11 12  1  0
 12 13  1  0
 13 14  1  0
 13 15  2  0
 12 16  2  0
 16 17  1  0
 17 18  2  0
 18 19  1  0
 19 20  2  0
 20 21  1  0
 21 22  1  0
 21 23  1  0
 21 24  1  0
 20 25  1  0
 25 26  2  0
 26 11  1  0
 26 17  1  0
  1 27  1  0
  1 28  1  0
  1 29  1  0
  3 30  1  0
  3 31  1  0
  4 32  1  0
  4 33  1  0
  5 34  1  0
  5 35  1  0
  6 36  1  0
  7 37  1  0
  7 38  1  0
  7 39  1  0
  8 40  1  0
  8 41  1  0
  8 42  1  0
 14 43  1  0
 16 44  1  0
 18 45  1  0
 19 46  1  0
 25 47  1  0
M  CHG  2   6   1  14  -1
M  END
>  <UniqueID>  (87) 
87

>  <SMILES>  (87) 
CN(CCC[NH+](C)C)C(=O)n1c(C([NH-])=O)cc2ccc(C(F)(F)F)cc21

>  <Energy>  (87) 
80.81340943121361

>  <Genealogy>  (87) 
CN(CCC[NH+](C)C)C(=O)n1c(C([NH-])=O)cc2ccc(C(F)(F)F)cc21 (protonated)
CN(CCC[NH+](C)C)C(=O)n1c(C([NH-])=O)cc2ccc(C(F)(F)F)cc21 (3D coordinates assigned)
CN(CCC[NH+](C)C)C(=O)n1c(C([NH-])=O)cc2ccc(C(F)(F)F)cc21 (optimized conformer: 80.81340943121361 kcal/mol)

>  <smiles>  (87) 
CN(C)CCCN(C)C(=O)n1c(C(N)=O)cc2ccc(C(F)(F)F)cc21

>  <score_type>  (87) 
oracle

>  <origin>  (87) 
adg

>  <m_score__min__energy>  (87) 
-4.9199999999999999

>  <m_primary>  (87) 
energy

$$$$
88:0
     RDKit          3D

 40 41  0  0  0  0  0  0  0  0999 V2000
  149.1750  160.6400  130.6590 C   0  0  0  0  0  0  0  0  0  0  0  0
  149.7710  159.3570  131.2290 C   0  0  0  0  0  0  0  0  0  0  0  0
  148.7760  158.6580  132.1150 C   0  0  0  0  0  0  0  0  0  0  0  0
  147.6870  159.3780  132.6690 C   0  0  0  0  0  0  0  0  0  0  0  0
  146.7410  158.7310  133.4820 C   0  0  0  0  0  0  0  0  0  0  0  0
  146.8990  157.3660  133.7070 C   0  0  0  0  0  0  0  0  0  0  0  0
  146.1470  156.4990  134.4670 C   0  0  0  0  0  0  0  0  0  0  0  0
  146.7690  155.2590  134.3380 C   0  0  0  0  0  0  0  0  0  0  0  0
  146.2540  154.0150  134.9490 C   0  0  0  0  0  0  0  0  0  0  0  0
  146.5400  153.7240  136.3150 N   0  0  0  0  0  0  0  0  0  0  0  0
  145.5450  153.2150  134.2840 O   0  0  0  0  0  0  0  0  0  0  0  0
  147.8610  155.3560  133.5300 N   0  0  0  0  0  0  0  0  0  0  0  0
  148.7910  154.3190  133.1810 C   0  0  0  0  0  0  0  0  0  0  0  0
  149.8370  154.6100  132.5400 O   0  0  0  0  0  0  0  0  0  0  0  0
  148.5250  152.9600  133.5530 N   0  0  0  0  0  0  0  0  0  0  0  0
  149.4150  151.8580  133.1980 C   0  0  0  0  0  0  0  0  0  0  0  0
  148.9670  151.2110  131.8820 C   0  0  0  0  0  0  0  0  0  0  0  0
  149.8720  150.0430  131.4720 C   0  0  0  0  0  0  0  0  0  0  0  0
  150.5130  150.2820  130.1390 C   0  0  0  0  0  0  0  0  0  0  0  0
  149.9920  151.0840  129.3190 O   0  0  0  0  0  0  0  0  0  0  0  0
  151.7040  149.6440  129.8150 O   0  0  0  0  0  0  0  0  0  0  0  0
  147.9300  156.6510  133.1540 C   0  0  0  0  0  0  0  0  0  0  0  0
  148.8980  157.2720  132.3580 C   0  0  0  0  0  0  0  0  0  0  0  0
  148.8684  161.3000  131.4839 H   0  0  0  0  0  0  0  0  0  0  0  0
  149.9279  161.1511  130.0410 H   0  0  0  0  0  0  0  0  0  0  0  0
  148.2988  160.3943  130.0410 H   0  0  0  0  0  0  0  0  0  0  0  0
  150.0493  158.6888  130.4008 H   0  0  0  0  0  0  0  0  0  0  0  0
  150.6584  159.6134  131.8263 H   0  0  0  0  0  0  0  0  0  0  0  0
  147.5819  160.4529  132.4603 H   0  0  0  0  0  0  0  0  0  0  0  0
  145.9017  159.2856  133.9269 H   0  0  0  0  0  0  0  0  0  0  0  0
  145.2460  156.7351  135.0521 H   0  0  0  0  0  0  0  0  0  0  0  0
  145.9170  154.0700  137.0790 H   0  0  0  0  0  0  0  0  0  0  0  0
  147.6490  152.7430  134.0810 H   0  0  0  0  0  0  0  0  0  0  0  0
  150.4392  152.2422  133.0826 H   0  0  0  0  0  0  0  0  0  0  0  0
  149.3823  151.1019  133.9963 H   0  0  0  0  0  0  0  0  0  0  0  0
  147.9395  150.8372  132.0030 H   0  0  0  0  0  0  0  0  0  0  0  0
  149.0252  151.9756  131.0934 H   0  0  0  0  0  0  0  0  0  0  0  0
  150.6598  149.9191  132.2296 H   0  0  0  0  0  0  0  0  0  0  0  0
  149.2518  149.1376  131.3976 H   0  0  0  0  0  0  0  0  0  0  0  0
  149.7327  156.6959  131.9322 H   0  0  0  0  0  0  0  0  0  0  0  0
  1  2  1  0
  2  3  1  0
  3  4  2  0
  4  5  1  0
  5  6  2  0
  6  7  1  0
  7  8  2  0
  8  9  1  0
  9 10  1  0
  9 11  2  0
  8 12  1  0
 12 13  1  0
 13 14  2  0
 13 15  1  0
 15 16  1  0
 16 17  1  0
 17 18  1  0
 18 19  1  0
 19 20  2  0
 19 21  1  0
 12 22  1  0
 22 23  2  0
 23  3  1  0
 22  6  1  0
  1 24  1  0
  1 25  1  0
  1 26  1  0
  2 27  1  0
  2 28  1  0
  4 29  1  0
  5 30  1  0
  7 31  1  0
 10 32  1  0
 15 33  1  0
 16 34  1  0
 16 35  1  0
 17 36  1  0
 17 37  1  0
 18 38  1  0
 18 39  1  0
 23 40  1  0
M  CHG  2  10  -1  21  -1
M  END
>  <UniqueID>  (88) 
88

>  <SMILES>  (88) 
CCc1ccc2cc(C([NH-])=O)n(C(=O)NCCCC(=O)[O-])c2c1

>  <Energy>  (88) 
68.58854467595594

>  <Genealogy>  (88) 
CCc1ccc2cc(C([NH-])=O)n(C(=O)NCCCC(=O)[O-])c2c1 (protonated)
CCc1ccc2cc(C([NH-])=O)n(C(=O)NCCCC(=O)[O-])c2c1 (3D coordinates assigned)
CCc1ccc2cc(C([NH-])=O)n(C(=O)NCCCC(=O)[O-])c2c1 (optimized conformer: 68.58854467595594 kcal/mol)

>  <smiles>  (88) 
CCc1ccc2cc(C(N)=O)n(C(=O)NCCCC(=O)O)c2c1

>  <score_type>  (88) 
oracle

>  <origin>  (88) 
adg

>  <m_score__min__energy>  (88) 
-7.54

>  <m_primary>  (88) 
energy

$$$$
89:0
     RDKit          3D

 43 44  0  0  0  0  0  0  0  0999 V2000
  139.0660  158.1560  132.5280 C   0  0  0  0  0  0  0  0  0  0  0  0
  139.1080  157.3390  133.8090 C   0  0  0  0  0  0  0  0  0  0  0  0
  139.1720  158.2140  134.9310 O   0  0  0  0  0  0  0  0  0  0  0  0
  140.0090  157.9750  136.0240 C   0  0  0  0  0  0  0  0  0  0  0  0
  139.5590  157.4470  137.0780 O   0  0  0  0  0  0  0  0  0  0  0  0
  141.4650  158.3040  135.9210 C   0  0  0  0  0  0  0  0  0  0  0  0
  141.7730  158.8770  134.6100 N   0  0  0  0  0  0  0  0  0  0  0  0
  143.0920  159.3110  134.2280 C   0  0  0  0  0  0  0  0  0  0  0  0
  143.4080  160.6890  134.0790 C   0  0  0  0  0  0  0  0  0  0  0  0
  144.7050  161.0910  133.7180 C   0  0  0  0  0  0  0  0  0  0  0  0
  145.6610  160.1050  133.5050 C   0  0  0  0  0  0  0  0  0  0  0  0
  146.9910  160.2190  133.1720 C   0  0  0  0  0  0  0  0  0  0  0  0
  147.4670  158.9110  133.0980 C   0  0  0  0  0  0  0  0  0  0  0  0
  148.8420  158.5680  132.6810 C   0  0  0  0  0  0  0  0  0  0  0  0
  149.1860  157.2090  132.4240 N   0  0  0  0  0  0  0  0  0  0  0  0
  149.7290  159.4580  132.5820 O   0  0  0  0  0  0  0  0  0  0  0  0
  146.4700  158.0240  133.3830 N   0  0  0  0  0  0  0  0  0  0  0  0
  146.5620  156.5930  133.4740 C   0  0  0  0  0  0  0  0  0  0  0  0
  146.6310  155.8980  132.4230 O   0  0  0  0  0  0  0  0  0  0  0  0
  146.5990  155.9780  134.7300 O   0  0  0  0  0  0  0  0  0  0  0  0
  147.5260  154.9510  135.0630 C   0  0  0  0  0  0  0  0  0  0  0  0
  148.0980  155.2320  136.3180 O   0  0  0  0  0  0  0  0  0  0  0  0
  147.9150  153.8580  137.3110 P   0  0  0  0  0  0  0  0  0  0  0  0
  149.1370  152.9740  137.2010 O   0  0  0  0  0  0  0  0  0  0  0  0
  146.5580  152.9890  136.7990 O   0  0  0  0  0  0  0  0  0  0  0  0
  147.6940  154.3200  138.9240 O   0  0  0  0  0  0  0  0  0  0  0  0
  145.3710  158.7710  133.6270 C   0  0  0  0  0  0  0  0  0  0  0  0
  144.0940  158.3410  134.0030 C   0  0  0  0  0  0  0  0  0  0  0  0
  139.0110  159.2260  132.7772 H   0  0  0  0  0  0  0  0  0  0  0  0
  139.9753  157.9628  131.9399 H   0  0  0  0  0  0  0  0  0  0  0  0
  138.1813  157.8705  131.9399 H   0  0  0  0  0  0  0  0  0  0  0  0
  138.2013  156.7201  133.8785 H   0  0  0  0  0  0  0  0  0  0  0  0
  139.9964  156.6904  133.8000 H   0  0  0  0  0  0  0  0  0  0  0  0
  141.7275  159.0309  136.7038 H   0  0  0  0  0  0  0  0  0  0  0  0
  142.0470  157.3794  136.0491 H   0  0  0  0  0  0  0  0  0  0  0  0
  140.9990  158.9800  133.9110 H   0  0  0  0  0  0  0  0  0  0  0  0
  142.6297  161.4477  134.2479 H   0  0  0  0  0  0  0  0  0  0  0  0
  144.9567  162.1561  133.6071 H   0  0  0  0  0  0  0  0  0  0  0  0
  147.5583  161.1457  133.0005 H   0  0  0  0  0  0  0  0  0  0  0  0
  148.5830  156.6080  131.8200 H   0  0  0  0  0  0  0  0  0  0  0  0
  147.0038  153.9837  135.1051 H   0  0  0  0  0  0  0  0  0  0  0  0
  148.3161  154.9049  134.2991 H   0  0  0  0  0  0  0  0  0  0  0  0
  143.8746  157.2696  134.1210 H   0  0  0  0  0  0  0  0  0  0  0  0
  1  2  1  0
  2  3  1  0
  3  4  1  0
  4  5  2  0
  4  6  1  0
  6  7  1  0
  7  8  1  0
  8  9  2  0
  9 10  1  0
 10 11  2  0
 11 12  1  0
 12 13  2  0
 13 14  1  0
 14 15  1  0
 14 16  2  0
 13 17  1  0
 17 18  1  0
 18 19  2  0
 18 20  1  0
 20 21  1  0
 21 22  1  0
 22 23  1  0
 23 24  2  0
 23 25  1  0
 23 26  1  0
 17 27  1  0
 27 28  2  0
 28  8  1  0
 27 11  1  0
  1 29  1  0
  1 30  1  0
  1 31  1  0
  2 32  1  0
  2 33  1  0
  6 34  1  0
  6 35  1  0
  7 36  1  0
  9 37  1  0
 10 38  1  0
 12 39  1  0
 15 40  1  0
 21 41  1  0
 21 42  1  0
 28 43  1  0
M  CHG  3  15  -1  25  -1  26  -1
M  END
>  <UniqueID>  (89) 
89

>  <SMILES>  (89) 
CCOC(=O)CNc1ccc2cc(C([NH-])=O)n(C(=O)OCOP(=O)([O-])[O-])c2c1

>  <Energy>  (89) 
72.78360378765466

>  <Genealogy>  (89) 
CCOC(=O)CNc1ccc2cc(C([NH-])=O)n(C(=O)OCOP(=O)([O-])[O-])c2c1 (protonated)
CCOC(=O)CNc1ccc2cc(C([NH-])=O)n(C(=O)OCOP(=O)([O-])[O-])c2c1 (3D coordinates assigned)
CCOC(=O)CNc1ccc2cc(C([NH-])=O)n(C(=O)OCOP(=O)([O-])[O-])c2c1 (optimized conformer: 72.78360378765466 kcal/mol)

>  <smiles>  (89) 
CCOC(=O)CNc1ccc2cc(C(N)=O)n(C(=O)OCOP(=O)(O)O)c2c1

>  <score_type>  (89) 
oracle

>  <origin>  (89) 
adg

>  <m_score__min__energy>  (89) 
-6.8300000000000001

>  <m_primary>  (89) 
energy

$$$$
90:0
     RDKit          3D

 41 42  0  0  0  0  0  0  0  0999 V2000
  138.7260  158.1910  133.4550 C   0  0  0  0  0  0  0  0  0  0  0  0
  139.7030  158.6780  132.3840 C   0  0  2  0  0  0  0  0  0  0  0  0
  140.6800  159.5120  132.9800 O   0  0  0  0  0  0  0  0  0  0  0  0
  141.8420  158.5670  133.8060 P   0  0  2  0  0  0  0  0  0  0  0  0
  141.3640  157.1370  133.9040 O   0  0  0  0  0  0  0  0  0  0  0  0
  142.0390  159.1810  135.3710 O   0  0  0  0  0  0  0  0  0  0  0  0
  143.3340  158.6020  132.9810 O   0  0  0  0  0  0  0  0  0  0  0  0
  144.1340  159.6070  133.5580 C   0  0  0  0  0  0  0  0  0  0  0  0
  145.2150  159.9070  132.6830 O   0  0  0  0  0  0  0  0  0  0  0  0
  146.5460  159.9610  133.1110 C   0  0  0  0  0  0  0  0  0  0  0  0
  146.9750  160.9730  133.7290 O   0  0  0  0  0  0  0  0  0  0  0  0
  147.4330  158.8670  132.8260 N   0  0  0  0  0  0  0  0  0  0  0  0
  148.6340  158.9150  132.1840 C   0  0  0  0  0  0  0  0  0  0  0  0
  149.2110  160.0950  131.5090 C   0  0  0  0  0  0  0  0  0  0  0  0
  148.3960  161.2390  131.2610 N   0  0  0  0  0  0  0  0  0  0  0  0
  150.4260  160.1220  131.1800 O   0  0  0  0  0  0  0  0  0  0  0  0
  149.2310  157.6560  132.1730 C   0  0  0  0  0  0  0  0  0  0  0  0
  148.3490  156.8270  132.8260 C   0  0  0  0  0  0  0  0  0  0  0  0
  148.4450  155.4710  133.1210 C   0  0  0  0  0  0  0  0  0  0  0  0
  147.3950  154.8760  133.8400 C   0  0  0  0  0  0  0  0  0  0  0  0
  146.2680  155.6380  134.2420 C   0  0  0  0  0  0  0  0  0  0  0  0
  145.1770  155.0020  135.0660 C   0  0  0  0  0  0  0  0  0  0  0  0
  144.6370  153.9410  134.3630 F   0  0  0  0  0  0  0  0  0  0  0  0
  144.1760  155.9170  135.3420 F   0  0  0  0  0  0  0  0  0  0  0  0
  145.6820  154.5370  136.2680 F   0  0  0  0  0  0  0  0  0  0  0  0
  146.2190  157.0200  133.9440 C   0  0  0  0  0  0  0  0  0  0  0  0
  147.2710  157.5820  133.2110 C   0  0  0  0  0  0  0  0  0  0  0  0
  138.9560  159.4700  131.3510 C   0  0  0  0  0  0  0  0  0  0  0  0
  139.5650  159.9730  130.3700 O   0  0  0  0  0  0  0  0  0  0  0  0
  137.5930  159.6940  131.4990 O   0  0  0  0  0  0  0  0  0  0  0  0
  139.1418  158.3982  134.4521 H   0  0  0  0  0  0  0  0  0  0  0  0
  137.7661  158.7160  133.3416 H   0  0  0  0  0  0  0  0  0  0  0  0
  138.5674  157.1084  133.3416 H   0  0  0  0  0  0  0  0  0  0  0  0
  140.1885  157.8103  131.9135 H   0  0  0  0  0  0  0  0  0  0  0  0
  143.5290  160.5116  133.7183 H   0  0  0  0  0  0  0  0  0  0  0  0
  144.5275  159.2561  134.5234 H   0  0  0  0  0  0  0  0  0  0  0  0
  147.7660  161.6200  132.0020 H   0  0  0  0  0  0  0  0  0  0  0  0
  150.2023  157.3829  131.7348 H   0  0  0  0  0  0  0  0  0  0  0  0
  149.3172  154.8821  132.8008 H   0  0  0  0  0  0  0  0  0  0  0  0
  147.4473  153.8071  134.0942 H   0  0  0  0  0  0  0  0  0  0  0  0
  145.3739  157.6387  134.2804 H   0  0  0  0  0  0  0  0  0  0  0  0
  1  2  1  0
  2  3  1  0
  3  4  1  0
  4  5  2  0
  4  6  1  1
  4  7  1  0
  7  8  1  0
  8  9  1  0
  9 10  1  0
 10 11  2  0
 10 12  1  0
 12 13  1  0
 13 14  1  0
 14 15  1  0
 14 16  2  0
 13 17  2  0
 17 18  1  0
 18 19  2  0
 19 20  1  0
 20 21  2  0
 21 22  1  0
 22 23  1  0
 22 24  1  0
 22 25  1  0
 21 26  1  0
 26 27  2  0
  2 28  1  0
 28 29  2  0
 28 30  1  0
 27 12  1  0
 27 18  1  0
  1 31  1  0
  1 32  1  0
  1 33  1  0
  2 34  1  6
  8 35  1  0
  8 36  1  0
 15 37  1  0
 17 38  1  0
 19 39  1  0
 20 40  1  0
 26 41  1  0
M  CHG  3   6  -1  15  -1  30  -1
M  END
>  <UniqueID>  (90) 
90

>  <SMILES>  (90) 
C[C@H](O[P@](=O)([O-])OCOC(=O)n1c(C([NH-])=O)cc2ccc(C(F)(F)F)cc21)C(=O)[O-]

>  <Energy>  (90) 
75.63554431318471

>  <Genealogy>  (90) 
CC(OP(=O)([O-])OCOC(=O)n1c(C([NH-])=O)cc2ccc(C(F)(F)F)cc21)C(=O)[O-] (protonated)
C[C@H](O[P@](=O)([O-])OCOC(=O)n1c(C([NH-])=O)cc2ccc(C(F)(F)F)cc21)C(=O)[O-] (chirality)
C[C@H](O[P@](=O)([O-])OCOC(=O)n1c(C([NH-])=O)cc2ccc(C(F)(F)F)cc21)C(=O)[O-] (3D coordinates assigned)
C[C@H](O[P@](=O)([O-])OCOC(=O)n1c(C([NH-])=O)cc2ccc(C(F)(F)F)cc21)C(=O)[O-] (optimized conformer: 75.63554431318471 kcal/mol)

>  <smiles>  (90) 
CC(OP(=O)(O)OCOC(=O)n1c(C(N)=O)cc2ccc(C(F)(F)F)cc21)C(=O)O

>  <score_type>  (90) 
oracle

>  <origin>  (90) 
adg

>  <m_score__min__energy>  (90) 
-6.7400000000000002

>  <m_primary>  (90) 
energy

$$$$
91:0
     RDKit          3D

 35 36  0  0  0  0  0  0  0  0999 V2000
  146.6490  154.3960  133.0350 C   0  0  0  0  0  0  0  0  0  0  0  0
  147.2110  155.5480  133.7470 N   0  0  0  0  0  0  0  0  0  0  0  0
  147.3580  155.5060  135.2100 C   0  0  0  0  0  0  0  0  0  0  0  0
  146.5170  154.4080  135.7820 C   0  0  0  0  0  0  0  0  0  0  0  0
  147.0560  153.4390  136.3780 O   0  0  0  0  0  0  0  0  0  0  0  0
  145.1330  154.4680  135.6740 O   0  0  0  0  0  0  0  0  0  0  0  0
  147.5260  156.7460  133.0060 C   0  0  0  0  0  0  0  0  0  0  0  0
  148.5250  156.7670  132.2360 O   0  0  0  0  0  0  0  0  0  0  0  0
  146.7100  157.9220  133.1200 N   0  0  0  0  0  0  0  0  0  0  0  0
  147.0820  159.2180  132.9280 C   0  0  0  0  0  0  0  0  0  0  0  0
  148.4320  159.6620  132.5080 C   0  0  0  0  0  0  0  0  0  0  0  0
  149.6060  158.9950  132.9740 N   0  0  0  0  0  0  0  0  0  0  0  0
  148.5580  160.6470  131.7330 O   0  0  0  0  0  0  0  0  0  0  0  0
  145.9910  160.0660  133.1300 C   0  0  0  0  0  0  0  0  0  0  0  0
  144.9360  159.2360  133.4410 C   0  0  0  0  0  0  0  0  0  0  0  0
  143.6060  159.5390  133.7210 C   0  0  0  0  0  0  0  0  0  0  0  0
  142.7340  158.4730  134.0010 C   0  0  0  0  0  0  0  0  0  0  0  0
  143.2020  157.1330  134.0160 C   0  0  0  0  0  0  0  0  0  0  0  0
  142.2430  155.9980  134.2700 C   0  0  0  0  0  0  0  0  0  0  0  0
  142.7270  154.8170  133.7320 F   0  0  0  0  0  0  0  0  0  0  0  0
  142.0590  155.8110  135.6280 F   0  0  0  0  0  0  0  0  0  0  0  0
  141.0260  156.2930  133.6850 F   0  0  0  0  0  0  0  0  0  0  0  0
  144.5550  156.8660  133.7010 C   0  0  0  0  0  0  0  0  0  0  0  0
  145.3970  157.9470  133.4210 C   0  0  0  0  0  0  0  0  0  0  0  0
  146.2877  153.6553  133.7636 H   0  0  0  0  0  0  0  0  0  0  0  0
  145.8117  154.7280  132.4036 H   0  0  0  0  0  0  0  0  0  0  0  0
  147.4261  153.9404  132.4036 H   0  0  0  0  0  0  0  0  0  0  0  0
  148.4129  155.3259  135.4643 H   0  0  0  0  0  0  0  0  0  0  0  0
  147.0292  156.4672  135.6318 H   0  0  0  0  0  0  0  0  0  0  0  0
  149.5530  158.1310  133.5560 H   0  0  0  0  0  0  0  0  0  0  0  0
  150.5490  159.3420  132.6890 H   0  0  0  0  0  0  0  0  0  0  0  0
  145.9768  161.1634  133.0565 H   0  0  0  0  0  0  0  0  0  0  0  0
  143.2493  160.5795  133.7229 H   0  0  0  0  0  0  0  0  0  0  0  0
  141.6743  158.6799  134.2114 H   0  0  0  0  0  0  0  0  0  0  0  0
  144.9353  155.8341  133.6769 H   0  0  0  0  0  0  0  0  0  0  0  0
  1  2  1  0
  2  3  1  0
  3  4  1  0
  4  5  2  0
  4  6  1  0
  2  7  1  0
  7  8  2  0
  7  9  1  0
  9 10  1  0
 10 11  1  0
 11 12  1  0
 11 13  2  0
 10 14  2  0
 14 15  1  0
 15 16  2  0
 16 17  1  0
 17 18  2  0
 18 19  1  0
 19 20  1  0
 19 21  1  0
 19 22  1  0
 18 23  1  0
 23 24  2  0
 24  9  1  0
 24 15  1  0
  1 25  1  0
  1 26  1  0
  1 27  1  0
  3 28  1  0
  3 29  1  0
 12 30  1  0
 12 31  1  0
 14 32  1  0
 16 33  1  0
 17 34  1  0
 23 35  1  0
M  CHG  1   6  -1
M  END
>  <UniqueID>  (91) 
91

>  <SMILES>  (91) 
CN(CC(=O)[O-])C(=O)n1c(C(N)=O)cc2ccc(C(F)(F)F)cc21

>  <Energy>  (91) 
71.83241674537453

>  <Genealogy>  (91) 
CN(CC(=O)[O-])C(=O)n1c(C(N)=O)cc2ccc(C(F)(F)F)cc21 (protonated)
CN(CC(=O)[O-])C(=O)n1c(C(N)=O)cc2ccc(C(F)(F)F)cc21 (3D coordinates assigned)
CN(CC(=O)[O-])C(=O)n1c(C(N)=O)cc2ccc(C(F)(F)F)cc21 (optimized conformer: 71.83241674537453 kcal/mol)

>  <smiles>  (91) 
CN(CC(=O)O)C(=O)n1c(C(N)=O)cc2ccc(C(F)(F)F)cc21

>  <score_type>  (91) 
oracle

>  <origin>  (91) 
adg

>  <m_score__min__energy>  (91) 
-6.25

>  <m_primary>  (91) 
energy

$$$$
92:0
     RDKit          3D

 45 46  0  0  0  0  0  0  0  0999 V2000
  142.1150  158.1280  139.8960 C   0  0  0  0  0  0  0  0  0  0  0  0
  141.6600  156.7000  139.9350 C   0  0  0  0  0  0  0  0  0  0  0  0
  141.0550  156.1800  141.1060 C   0  0  0  0  0  0  0  0  0  0  0  0
  140.6030  154.8510  141.1480 C   0  0  0  0  0  0  0  0  0  0  0  0
  140.7510  154.0750  140.0010 C   0  0  0  0  0  0  0  0  0  0  0  0
  140.4270  152.7570  139.7770 C   0  0  0  0  0  0  0  0  0  0  0  0
  140.8020  152.5040  138.4590 C   0  0  0  0  0  0  0  0  0  0  0  0
  140.5530  151.2160  137.7780 C   0  0  0  0  0  0  0  0  0  0  0  0
  140.6990  151.0920  136.3650 N   0  0  0  0  0  0  0  0  0  0  0  0
  140.1600  150.2230  138.4460 O   0  0  0  0  0  0  0  0  0  0  0  0
  141.3440  153.6190  137.8920 N   0  0  0  0  0  0  0  0  0  0  0  0
  141.9350  153.7400  136.5890 C   0  0  0  0  0  0  0  0  0  0  0  0
  142.9530  153.0570  136.2930 O   0  0  0  0  0  0  0  0  0  0  0  0
  141.3660  154.6030  135.6480 O   0  0  0  0  0  0  0  0  0  0  0  0
  141.6290  156.0020  135.6300 C   0  0  0  0  0  0  0  0  0  0  0  0
  140.4650  156.7110  135.0220 C   0  0  0  0  0  0  0  0  0  0  0  0
  140.1910  156.5290  133.8050 O   0  0  0  0  0  0  0  0  0  0  0  0
  139.7000  157.6280  135.8120 N   0  0  0  0  0  0  0  0  0  0  0  0
  140.2470  158.3740  136.9390 C   0  0  0  0  0  0  0  0  0  0  0  0
  141.3610  159.3140  136.4720 C   0  0  0  0  0  0  0  0  0  0  0  0
  140.9350  160.0530  135.3410 O   0  0  0  0  0  0  0  0  0  0  0  0
  141.7980  159.8510  134.2360 C   0  0  0  0  0  0  0  0  0  0  0  0
  140.9850  159.6420  132.9580 C   0  0  0  0  0  0  0  0  0  0  0  0
  139.7060  159.1590  133.2690 O   0  0  0  0  0  0  0  0  0  0  0  0
  141.3040  154.5730  138.8500 C   0  0  0  0  0  0  0  0  0  0  0  0
  141.7790  155.8890  138.7860 C   0  0  0  0  0  0  0  0  0  0  0  0
  142.2345  158.5030  140.9232 H   0  0  0  0  0  0  0  0  0  0  0  0
  143.0779  158.1917  139.3681 H   0  0  0  0  0  0  0  0  0  0  0  0
  141.3664  158.7371  139.3681 H   0  0  0  0  0  0  0  0  0  0  0  0
  140.9382  156.8233  141.9906 H   0  0  0  0  0  0  0  0  0  0  0  0
  140.1463  154.4358  142.0585 H   0  0  0  0  0  0  0  0  0  0  0  0
  139.9693  152.0526  140.4872 H   0  0  0  0  0  0  0  0  0  0  0  0
  141.2530  151.7880  135.8190 H   0  0  0  0  0  0  0  0  0  0  0  0
  141.7825  156.3610  136.6584 H   0  0  0  0  0  0  0  0  0  0  0  0
  142.5342  156.2009  135.0375 H   0  0  0  0  0  0  0  0  0  0  0  0
  139.4452  158.9664  137.4039 H   0  0  0  0  0  0  0  0  0  0  0  0
  140.6647  157.6624  137.6665 H   0  0  0  0  0  0  0  0  0  0  0  0
  141.6149  160.0092  137.2858 H   0  0  0  0  0  0  0  0  0  0  0  0
  142.2437  158.7170  136.1992 H   0  0  0  0  0  0  0  0  0  0  0  0
  142.4444  160.7328  134.1146 H   0  0  0  0  0  0  0  0  0  0  0  0
  142.4110  158.9564  134.4200 H   0  0  0  0  0  0  0  0  0  0  0  0
  140.8917  160.6005  132.4264 H   0  0  0  0  0  0  0  0  0  0  0  0
  141.5003  158.9072  132.3220 H   0  0  0  0  0  0  0  0  0  0  0  0
  139.7920  158.6560  134.1220 H   0  0  0  0  0  0  0  0  0  0  0  0
  142.2332  156.2805  137.8638 H   0  0  0  0  0  0  0  0  0  0  0  0
  1  2  1  0
  2  3  2  0
  3  4  1  0
  4  5  2  0
  5  6  1  0
  6  7  2  0
  7  8  1  0
  8  9  1  0
  8 10  2  0
  7 11  1  0
 11 12  1  0
 12 13  2  0
 12 14  1  0
 14 15  1  0
 15 16  1  0
 16 17  2  0
 16 18  1  0
 18 19  1  0
 19 20  1  0
 20 21  1  0
 21 22  1  0
 22 23  1  0
 23 24  1  0
 11 25  1  0
 25 26  2  0
 26  2  1  0
 25  5  1  0
  1 27  1  0
  1 28  1  0
  1 29  1  0
  3 30  1  0
  4 31  1  0
  6 32  1  0
  9 33  1  0
 15 34  1  0
 15 35  1  0
 19 36  1  0
 19 37  1  0
 20 38  1  0
 20 39  1  0
 22 40  1  0
 22 41  1  0
 23 42  1  0
 23 43  1  0
 24 44  1  0
 26 45  1  0
M  CHG  2   9  -1  18  -1
M  END
>  <UniqueID>  (92) 
92

>  <SMILES>  (92) 
Cc1ccc2cc(C([NH-])=O)n(C(=O)OCC(=O)[N-]CCOCCO)c2c1

>  <Energy>  (92) 
77.21483639440704

>  <Genealogy>  (92) 
Cc1ccc2cc(C([NH-])=O)n(C(=O)OCC(=O)[N-]CCOCCO)c2c1 (protonated)
Cc1ccc2cc(C([NH-])=O)n(C(=O)OCC(=O)[N-]CCOCCO)c2c1 (3D coordinates assigned)
Cc1ccc2cc(C([NH-])=O)n(C(=O)OCC(=O)[N-]CCOCCO)c2c1 (optimized conformer: 77.21483639440704 kcal/mol)

>  <smiles>  (92) 
Cc1ccc2cc(C(N)=O)n(C(=O)OCC(=O)NCCOCCO)c2c1

>  <score_type>  (92) 
oracle

>  <origin>  (92) 
adg

>  <m_score__min__energy>  (92) 
-5.29

>  <m_primary>  (92) 
energy

$$$$
93:0
     RDKit          3D

 36 37  0  0  0  0  0  0  0  0999 V2000
  148.4520  152.8300  134.2150 N   0  0  0  0  0  0  0  0  0  0  0  0
  148.6700  153.5530  133.0030 C   0  0  0  0  0  0  0  0  0  0  0  0
  149.1660  152.9520  132.0110 O   0  0  0  0  0  0  0  0  0  0  0  0
  148.2900  154.9790  132.8940 C   0  0  0  0  0  0  0  0  0  0  0  0
  149.1900  156.0040  132.6060 C   0  0  0  0  0  0  0  0  0  0  0  0
  148.4590  157.1680  132.6970 C   0  0  0  0  0  0  0  0  0  0  0  0
  148.8520  158.4890  132.5020 C   0  0  0  0  0  0  0  0  0  0  0  0
  147.8770  159.4910  132.6390 C   0  0  0  0  0  0  0  0  0  0  0  0
  146.5400  159.1580  132.9600 C   0  0  0  0  0  0  0  0  0  0  0  0
  145.5560  160.1870  133.0840 N   0  0  0  0  0  0  0  0  0  0  0  0
  146.1780  157.8070  133.1520 C   0  0  0  0  0  0  0  0  0  0  0  0
  147.1710  156.8290  133.0260 C   0  0  0  0  0  0  0  0  0  0  0  0
  147.0520  155.4900  133.1480 N   0  0  0  0  0  0  0  0  0  0  0  0
  145.8450  154.7640  133.4350 C   0  0  0  0  0  0  0  0  0  0  0  0
  145.5460  153.7460  132.7530 O   0  0  0  0  0  0  0  0  0  0  0  0
  145.0050  155.1950  134.4680 O   0  0  0  0  0  0  0  0  0  0  0  0
  145.0310  154.6390  135.7820 C   0  0  0  0  0  0  0  0  0  0  0  0
  146.4300  154.2840  136.1780 C   0  0  0  0  0  0  0  0  0  0  0  0
  147.3630  155.1070  135.9730 O   0  0  0  0  0  0  0  0  0  0  0  0
  146.6950  153.0250  136.7290 O   0  0  0  0  0  0  0  0  0  0  0  0
  147.5450  152.8250  137.8550 C   0  0  0  0  0  0  0  0  0  0  0  0
  148.9640  152.6480  137.4160 C   0  0  0  0  0  0  0  0  0  0  0  0
  149.2280  151.9610  136.3930 O   0  0  0  0  0  0  0  0  0  0  0  0
  149.9960  153.2370  138.1350 O   0  0  0  0  0  0  0  0  0  0  0  0
  148.6880  151.8130  134.2680 H   0  0  0  0  0  0  0  0  0  0  0  0
  148.1020  153.3040  135.0750 H   0  0  0  0  0  0  0  0  0  0  0  0
  150.2572  155.9044  132.3586 H   0  0  0  0  0  0  0  0  0  0  0  0
  149.8926  158.7402  132.2488 H   0  0  0  0  0  0  0  0  0  0  0  0
  148.1559  160.5453  132.4952 H   0  0  0  0  0  0  0  0  0  0  0  0
  144.6860  160.0310  133.6420 H   0  0  0  0  0  0  0  0  0  0  0  0
  145.6870  161.1110  132.6170 H   0  0  0  0  0  0  0  0  0  0  0  0
  145.1414  157.5301  133.3945 H   0  0  0  0  0  0  0  0  0  0  0  0
  144.6300  155.3755  136.4938 H   0  0  0  0  0  0  0  0  0  0  0  0
  144.4178  153.7258  135.7921 H   0  0  0  0  0  0  0  0  0  0  0  0
  147.4780  153.6995  138.5189 H   0  0  0  0  0  0  0  0  0  0  0  0
  147.2219  151.9185  138.3878 H   0  0  0  0  0  0  0  0  0  0  0  0
  1  2  1  0
  2  3  2  0
  2  4  1  0
  4  5  2  0
  5  6  1  0
  6  7  2  0
  7  8  1  0
  8  9  2  0
  9 10  1  0
  9 11  1  0
 11 12  2  0
 12 13  1  0
 13 14  1  0
 14 15  2  0
 14 16  1  0
 16 17  1  0
 17 18  1  0
 18 19  2  0
 18 20  1  0
 20 21  1  0
 21 22  1  0
 22 23  2  0
 22 24  1  0
 13  4  1  0
 12  6  1  0
  1 25  1  0
  1 26  1  0
  5 27  1  0
  7 28  1  0
  8 29  1  0
 10 30  1  0
 10 31  1  0
 11 32  1  0
 17 33  1  0
 17 34  1  0
 21 35  1  0
 21 36  1  0
M  CHG  1  24  -1
M  END
>  <UniqueID>  (93) 
93

>  <SMILES>  (93) 
NC(=O)c1cc2ccc(N)cc2n1C(=O)OCC(=O)OCC(=O)[O-]

>  <Energy>  (93) 
69.18890436411664

>  <Genealogy>  (93) 
NC(=O)c1cc2ccc(N)cc2n1C(=O)OCC(=O)OCC(=O)[O-] (protonated)
NC(=O)c1cc2ccc(N)cc2n1C(=O)OCC(=O)OCC(=O)[O-] (3D coordinates assigned)
NC(=O)c1cc2ccc(N)cc2n1C(=O)OCC(=O)OCC(=O)[O-] (optimized conformer: 69.18890436411664 kcal/mol)

>  <smiles>  (93) 
NC(=O)c1cc2ccc(N)cc2n1C(=O)OCC(=O)OCC(=O)O

>  <score_type>  (93) 
oracle

>  <origin>  (93) 
adg

>  <m_score__min__energy>  (93) 
-6.3899999999999997

>  <m_primary>  (93) 
energy

$$$$
94:0
     RDKit          3D

 41 43  0  0  0  0  0  0  0  0999 V2000
  142.5250  156.9350  132.6290 N   0  0  0  0  0  0  0  0  0  0  0  0
  143.4120  155.8730  132.9830 C   0  0  0  0  0  0  0  0  0  0  0  0
  144.6150  156.1350  133.2480 O   0  0  0  0  0  0  0  0  0  0  0  0
  142.9620  154.4660  132.9780 C   0  0  0  0  0  0  0  0  0  0  0  0
  143.8270  153.3850  132.8350 C   0  0  0  0  0  0  0  0  0  0  0  0
  143.0180  152.2730  132.8080 C   0  0  0  0  0  0  0  0  0  0  0  0
  143.3510  150.9280  132.6820 C   0  0  0  0  0  0  0  0  0  0  0  0
  142.3100  149.9860  132.7090 C   0  0  0  0  0  0  0  0  0  0  0  0
  140.9670  150.4010  132.8850 C   0  0  0  0  0  0  0  0  0  0  0  0
  139.8560  149.3890  132.8810 C   0  0  0  0  0  0  0  0  0  0  0  0
  139.5110  149.0390  131.5070 N   0  0  0  0  0  0  0  0  0  0  0  0
  139.4690  149.8860  130.4620 C   0  0  0  0  0  0  0  0  0  0  0  0
  139.1780  149.1590  129.3280 C   0  0  0  0  0  0  0  0  0  0  0  0
  139.0670  147.8530  129.7670 C   0  0  0  0  0  0  0  0  0  0  0  0
  139.2810  147.8030  131.0960 N   0  0  0  0  0  0  0  0  0  0  0  0
  140.6650  151.7750  133.0020 C   0  0  0  0  0  0  0  0  0  0  0  0
  141.7200  152.6950  132.9460 C   0  0  0  0  0  0  0  0  0  0  0  0
  141.6690  154.0410  133.0540 N   0  0  0  0  0  0  0  0  0  0  0  0
  140.4980  154.8390  133.2970 C   0  0  0  0  0  0  0  0  0  0  0  0
  139.3860  154.4860  132.8190 O   0  0  0  0  0  0  0  0  0  0  0  0
  140.5980  156.0080  134.0600 O   0  0  0  0  0  0  0  0  0  0  0  0
  139.5780  157.0020  134.1150 C   0  0  0  0  0  0  0  0  0  0  0  0
  139.0650  157.3430  132.7140 C   0  0  0  0  0  0  0  0  0  0  0  0
  139.5970  158.6650  132.2540 C   0  0  0  0  0  0  0  0  0  0  0  0
  138.8040  159.5910  131.9430 O   0  0  0  0  0  0  0  0  0  0  0  0
  140.9660  158.8560  132.1240 O   0  0  0  0  0  0  0  0  0  0  0  0
  141.5770  156.7390  132.2390 H   0  0  0  0  0  0  0  0  0  0  0  0
  142.8490  157.9260  132.6780 H   0  0  0  0  0  0  0  0  0  0  0  0
  144.9240  153.4138  132.7596 H   0  0  0  0  0  0  0  0  0  0  0  0
  144.3981  150.6121  132.5648 H   0  0  0  0  0  0  0  0  0  0  0  0
  142.5393  148.9165  132.5925 H   0  0  0  0  0  0  0  0  0  0  0  0
  140.1830  148.4857  133.4168 H   0  0  0  0  0  0  0  0  0  0  0  0
  138.9735  149.8166  133.3793 H   0  0  0  0  0  0  0  0  0  0  0  0
  139.6379  150.9721  130.5056 H   0  0  0  0  0  0  0  0  0  0  0  0
  139.0601  149.5348  128.3009 H   0  0  0  0  0  0  0  0  0  0  0  0
  138.8388  146.9868  129.1286 H   0  0  0  0  0  0  0  0  0  0  0  0
  139.6271  152.1148  133.1339 H   0  0  0  0  0  0  0  0  0  0  0  0
  138.7416  156.6253  134.7220 H   0  0  0  0  0  0  0  0  0  0  0  0
  140.0015  157.9128  134.5633 H   0  0  0  0  0  0  0  0  0  0  0  0
  139.3895  156.5608  132.0120 H   0  0  0  0  0  0  0  0  0  0  0  0
  137.9670  157.3999  132.7474 H   0  0  0  0  0  0  0  0  0  0  0  0
  1  2  1  0
  2  3  2  0
  2  4  1  0
  4  5  2  0
  5  6  1  0
  6  7  2  0
  7  8  1  0
  8  9  2  0
  9 10  1  0
 10 11  1  0
 11 12  1  0
 12 13  2  0
 13 14  1  0
 14 15  2  0
  9 16  1  0
 16 17  2  0
 17 18  1  0
 18 19  1  0
 19 20  2  0
 19 21  1  0
 21 22  1  0
 22 23  1  0
 23 24  1  0
 24 25  2  0
 24 26  1  0
 18  4  1  0
 17  6  1  0
 15 11  1  0
  1 27  1  0
  1 28  1  0
  5 29  1  0
  7 30  1  0
  8 31  1  0
 10 32  1  0
 10 33  1  0
 12 34  1  0
 13 35  1  0
 14 36  1  0
 16 37  1  0
 22 38  1  0
 22 39  1  0
 23 40  1  0
 23 41  1  0
M  CHG  1  26  -1
M  END
>  <UniqueID>  (94) 
94

>  <SMILES>  (94) 
NC(=O)c1cc2ccc(Cn3cccn3)cc2n1C(=O)OCCC(=O)[O-]

>  <Energy>  (94) 
105.15854614774014

>  <Genealogy>  (94) 
NC(=O)c1cc2ccc(Cn3cccn3)cc2n1C(=O)OCCC(=O)[O-] (protonated)
NC(=O)c1cc2ccc(Cn3cccn3)cc2n1C(=O)OCCC(=O)[O-] (3D coordinates assigned)
NC(=O)c1cc2ccc(Cn3cccn3)cc2n1C(=O)OCCC(=O)[O-] (optimized conformer: 105.15854614774014 kcal/mol)

>  <smiles>  (94) 
NC(=O)c1cc2ccc(Cn3cccn3)cc2n1C(=O)OCCC(=O)O

>  <score_type>  (94) 
oracle

>  <origin>  (94) 
adg

>  <m_score__min__energy>  (94) 
-7.5300000000000002

>  <m_primary>  (94) 
energy

$$$$
95:0
     RDKit          3D

 39 40  0  0  0  0  0  0  0  0999 V2000
  148.1040  156.3860  135.2310 C   0  0  0  0  0  0  0  0  0  0  0  0
  147.3470  155.7630  134.1400 N   0  0  0  0  0  0  0  0  0  0  0  0
  146.8710  154.3790  134.2710 C   0  0  0  0  0  0  0  0  0  0  0  0
  146.2930  154.1490  135.6320 C   0  0  0  0  0  0  0  0  0  0  0  0
  146.8730  153.3810  136.4450 O   0  0  0  0  0  0  0  0  0  0  0  0
  145.1040  154.7660  135.9980 O   0  0  0  0  0  0  0  0  0  0  0  0
  147.0450  156.5380  132.9630 C   0  0  0  0  0  0  0  0  0  0  0  0
  147.0060  155.9820  131.8300 O   0  0  0  0  0  0  0  0  0  0  0  0
  146.8090  157.9490  133.0520 N   0  0  0  0  0  0  0  0  0  0  0  0
  147.6730  158.9620  132.7710 C   0  0  0  0  0  0  0  0  0  0  0  0
  149.0730  158.8040  132.3200 C   0  0  0  0  0  0  0  0  0  0  0  0
  149.6310  157.5120  132.0980 N   0  0  0  0  0  0  0  0  0  0  0  0
  149.7870  159.8240  132.1330 O   0  0  0  0  0  0  0  0  0  0  0  0
  147.0560  160.1950  132.9800 C   0  0  0  0  0  0  0  0  0  0  0  0
  145.7790  159.8950  133.4060 C   0  0  0  0  0  0  0  0  0  0  0  0
  144.7250  160.7340  133.7460 C   0  0  0  0  0  0  0  0  0  0  0  0
  143.5090  160.1450  134.1310 C   0  0  0  0  0  0  0  0  0  0  0  0
  143.3580  158.7280  134.1700 C   0  0  0  0  0  0  0  0  0  0  0  0
  142.0940  158.1270  134.5560 N   0  0  0  0  0  0  0  0  0  0  0  0
  141.1700  158.8420  135.4460 C   0  0  0  0  0  0  0  0  0  0  0  0
  141.7220  156.7930  134.0690 C   0  0  0  0  0  0  0  0  0  0  0  0
  144.4660  157.9140  133.8190 C   0  0  0  0  0  0  0  0  0  0  0  0
  145.6600  158.5340  133.4440 C   0  0  0  0  0  0  0  0  0  0  0  0
  147.6976  156.0516  136.1969 H   0  0  0  0  0  0  0  0  0  0  0  0
  149.1618  156.0933  135.1571 H   0  0  0  0  0  0  0  0  0  0  0  0
  148.0203  157.4803  135.1571 H   0  0  0  0  0  0  0  0  0  0  0  0
  146.0972  154.1892  133.5125 H   0  0  0  0  0  0  0  0  0  0  0  0
  147.7208  153.6958  134.1258 H   0  0  0  0  0  0  0  0  0  0  0  0
  149.0300  156.7110  131.8030 H   0  0  0  0  0  0  0  0  0  0  0  0
  147.4942  161.1936  132.8359 H   0  0  0  0  0  0  0  0  0  0  0  0
  144.8393  161.8276  133.7147 H   0  0  0  0  0  0  0  0  0  0  0  0
  142.6598  160.7875  134.4068 H   0  0  0  0  0  0  0  0  0  0  0  0
  141.4363  158.6359  136.4932 H   0  0  0  0  0  0  0  0  0  0  0  0
  141.2405  159.9231  135.2557 H   0  0  0  0  0  0  0  0  0  0  0  0
  140.1412  158.5025  135.2557 H   0  0  0  0  0  0  0  0  0  0  0  0
  141.5367  156.1284  134.9257 H   0  0  0  0  0  0  0  0  0  0  0  0
  140.8102  156.8668  133.4582 H   0  0  0  0  0  0  0  0  0  0  0  0
  142.5404  156.3843  133.4582 H   0  0  0  0  0  0  0  0  0  0  0  0
  144.3862  156.8171  133.8418 H   0  0  0  0  0  0  0  0  0  0  0  0
  1  2  1  0
  2  3  1  0
  3  4  1  0
  4  5  2  0
  4  6  1  0
  2  7  1  0
  7  8  2  0
  7  9  1  0
  9 10  1  0
 10 11  1  0
 11 12  1  0
 11 13  2  0
 10 14  2  0
 14 15  1  0
 15 16  2  0
 16 17  1  0
 17 18  2  0
 18 19  1  0
 19 20  1  0
 19 21  1  0
 18 22  1  0
 22 23  2  0
 23  9  1  0
 23 15  1  0
  1 24  1  0
  1 25  1  0
  1 26  1  0
  3 27  1  0
  3 28  1  0
 12 29  1  0
 14 30  1  0
 16 31  1  0
 17 32  1  0
 20 33  1  0
 20 34  1  0
 20 35  1  0
 21 36  1  0
 21 37  1  0
 21 38  1  0
 22 39  1  0
M  CHG  2   6  -1  12  -1
M  END
>  <UniqueID>  (95) 
95

>  <SMILES>  (95) 
CN(CC(=O)[O-])C(=O)n1c(C([NH-])=O)cc2ccc(N(C)C)cc21

>  <Energy>  (95) 
76.11664370926029

>  <Genealogy>  (95) 
CN(CC(=O)[O-])C(=O)n1c(C([NH-])=O)cc2ccc(N(C)C)cc21 (protonated)
CN(CC(=O)[O-])C(=O)n1c(C([NH-])=O)cc2ccc(N(C)C)cc21 (3D coordinates assigned)
CN(CC(=O)[O-])C(=O)n1c(C([NH-])=O)cc2ccc(N(C)C)cc21 (optimized conformer: 76.11664370926029 kcal/mol)

>  <smiles>  (95) 
CN(CC(=O)O)C(=O)n1c(C(N)=O)cc2ccc(N(C)C)cc21

>  <score_type>  (95) 
oracle

>  <origin>  (95) 
adg

>  <m_score__min__energy>  (95) 
-6.0599999999999996

>  <m_primary>  (95) 
energy

$$$$
96:0
     RDKit          3D

 38 39  0  0  0  0  0  0  0  0999 V2000
  140.2270  149.4490  132.9790 C   0  0  0  0  0  0  0  0  0  0  0  0
  141.2850  150.5100  132.9430 C   0  0  0  0  0  0  0  0  0  0  0  0
  142.6360  150.1630  132.6980 C   0  0  0  0  0  0  0  0  0  0  0  0
  143.6260  151.1590  132.6230 C   0  0  0  0  0  0  0  0  0  0  0  0
  143.2340  152.4850  132.7890 C   0  0  0  0  0  0  0  0  0  0  0  0
  143.9780  153.6420  132.7230 C   0  0  0  0  0  0  0  0  0  0  0  0
  143.0710  154.6790  132.9370 C   0  0  0  0  0  0  0  0  0  0  0  0
  143.4610  156.1020  133.0300 C   0  0  0  0  0  0  0  0  0  0  0  0
  142.6030  157.1260  132.5240 N   0  0  0  0  0  0  0  0  0  0  0  0
  144.5760  156.4200  133.5190 O   0  0  0  0  0  0  0  0  0  0  0  0
  141.8150  154.1840  133.1280 N   0  0  0  0  0  0  0  0  0  0  0  0
  140.5920  154.9260  133.2930 C   0  0  0  0  0  0  0  0  0  0  0  0
  139.5100  154.4700  132.8260 O   0  0  0  0  0  0  0  0  0  0  0  0
  140.6050  156.1960  133.9570 N   0  0  0  0  0  0  0  0  0  0  0  0
  139.4270  157.0540  134.0230 C   0  0  0  0  0  0  0  0  0  0  0  0
  139.0870  157.6130  132.6270 C   0  0  0  0  0  0  0  0  0  0  0  0
  139.6180  159.0360  132.3800 C   0  0  1  0  0  0  0  0  0  0  0  0
  140.9810  158.9850  132.0380 O   0  0  0  0  0  0  0  0  0  0  0  0
  138.8370  159.7410  131.3050 C   0  0  0  0  0  0  0  0  0  0  0  0
  137.6090  159.9590  131.4590 O   0  0  0  0  0  0  0  0  0  0  0  0
  139.4590  160.1320  130.1230 O   0  0  0  0  0  0  0  0  0  0  0  0
  141.9310  152.8380  133.0310 C   0  0  0  0  0  0  0  0  0  0  0  0
  140.9230  151.8670  133.0920 C   0  0  0  0  0  0  0  0  0  0  0  0
  139.9858  149.2071  134.0246 H   0  0  0  0  0  0  0  0  0  0  0  0
  139.3234  149.8148  132.4694 H   0  0  0  0  0  0  0  0  0  0  0  0
  140.5954  148.5464  132.4694 H   0  0  0  0  0  0  0  0  0  0  0  0
  142.9130  149.1067  132.5654 H   0  0  0  0  0  0  0  0  0  0  0  0
  144.6787  150.8985  132.4387 H   0  0  0  0  0  0  0  0  0  0  0  0
  145.0592  153.7295  132.5401 H   0  0  0  0  0  0  0  0  0  0  0  0
  142.9080  158.1280  132.5490 H   0  0  0  0  0  0  0  0  0  0  0  0
  141.6510  156.9010  132.1530 H   0  0  0  0  0  0  0  0  0  0  0  0
  138.5736  156.4690  134.3963 H   0  0  0  0  0  0  0  0  0  0  0  0
  139.6366  157.8943  134.7012 H   0  0  0  0  0  0  0  0  0  0  0  0
  139.5230  156.9442  131.8703 H   0  0  0  0  0  0  0  0  0  0  0  0
  137.9902  157.6653  132.5619 H   0  0  0  0  0  0  0  0  0  0  0  0
  139.4955  159.6103  133.3102 H   0  0  0  0  0  0  0  0  0  0  0  0
  141.0580  159.3430  131.1150 H   0  0  0  0  0  0  0  0  0  0  0  0
  139.8735  152.1549  133.2523 H   0  0  0  0  0  0  0  0  0  0  0  0
  1  2  1  0
  2  3  2  0
  3  4  1  0
  4  5  2  0
  5  6  1  0
  6  7  2  0
  7  8  1  0
  8  9  1  0
  8 10  2  0
  7 11  1  0
 11 12  1  0
 12 13  2  0
 12 14  1  0
 14 15  1  0
 15 16  1  0
 16 17  1  0
 17 18  1  0
 17 19  1  0
 19 20  2  0
 19 21  1  0
 11 22  1  0
 22 23  2  0
 23  2  1  0
 22  5  1  0
  1 24  1  0
  1 25  1  0
  1 26  1  0
  3 27  1  0
  4 28  1  0
  6 29  1  0
  9 30  1  0
  9 31  1  0
 15 32  1  0
 15 33  1  0
 16 34  1  0
 16 35  1  0
 17 36  1  1
 18 37  1  0
 23 38  1  0
M  CHG  2  14  -1  21  -1
M  END
>  <UniqueID>  (96) 
96

>  <SMILES>  (96) 
Cc1ccc2cc(C(N)=O)n(C(=O)[N-]CC[C@@H](O)C(=O)[O-])c2c1

>  <Energy>  (96) 
72.95471681829267

>  <Genealogy>  (96) 
Cc1ccc2cc(C(N)=O)n(C(=O)[N-]CCC(O)C(=O)[O-])c2c1 (protonated)
Cc1ccc2cc(C(N)=O)n(C(=O)[N-]CC[C@@H](O)C(=O)[O-])c2c1 (chirality)
Cc1ccc2cc(C(N)=O)n(C(=O)[N-]CC[C@@H](O)C(=O)[O-])c2c1 (3D coordinates assigned)
Cc1ccc2cc(C(N)=O)n(C(=O)[N-]CC[C@@H](O)C(=O)[O-])c2c1 (optimized conformer: 72.95471681829267 kcal/mol)

>  <smiles>  (96) 
Cc1ccc2cc(C(N)=O)n(C(=O)NCCC(O)C(=O)O)c2c1

>  <score_type>  (96) 
oracle

>  <origin>  (96) 
adg

>  <m_score__min__energy>  (96) 
-6.7300000000000004

>  <m_primary>  (96) 
energy

$$$$
