54:0
     RDKit          3D

 27 29  0  0  0  0  0  0  0  0999 V2000
   57.9207   31.3486   44.6187 C   0  0  0  0  0  0  0  0  0  0  0  0
   56.9221   30.7100   43.8438 C   0  0  0  0  0  0  0  0  0  0  0  0
   56.5951   29.3591   44.0586 C   0  0  0  0  0  0  0  0  0  0  0  0
   57.2845   28.6728   45.0543 C   0  0  0  0  0  0  0  0  0  0  0  0
   57.1299   27.3896   45.4170 N   0  0  0  0  0  0  0  0  0  0  0  0
   58.0106   27.1854   46.4269 C   0  0  0  0  0  0  0  0  0  0  0  0
   58.7412   28.3440   46.6898 C   0  0  0  0  0  0  0  0  0  0  0  0
   58.2536   29.2816   45.8053 C   0  0  0  0  0  0  0  0  0  0  0  0
   58.6048   30.6160   45.6183 C   0  0  0  0  0  0  0  0  0  0  0  0
   58.1766   25.8867   47.1081 C   0  0  0  0  0  0  0  0  0  0  0  0
   59.1594   25.7177   47.8756 O   0  0  0  0  0  0  0  0  0  0  0  0
   57.2207   24.8265   46.9692 N   0  0  0  0  0  0  0  0  0  0  0  0
   57.1425   23.8914   45.8800 C   0  0  0  0  0  0  0  0  0  0  0  0
   58.2736   23.1310   45.5287 C   0  0  0  0  0  0  0  0  0  0  0  0
   58.2155   22.2093   44.4844 C   0  0  0  0  0  0  0  0  0  0  0  0
   57.0257   22.0214   43.7875 C   0  0  0  0  0  0  0  0  0  0  0  0
   56.9720   21.1236   42.7727 F   0  0  0  0  0  0  0  0  0  0  0  0
   55.8866   22.7477   44.1365 C   0  0  0  0  0  0  0  0  0  0  0  0
   55.9177   23.6858   45.1887 C   0  0  0  0  0  0  0  0  0  0  0  0
   54.6692   24.4321   45.5213 C   0  0  0  0  0  0  0  0  0  0  0  0
   54.6926   25.8216   45.8424 N   0  0  0  0  0  0  0  0  0  0  0  0
   53.5597   23.8326   45.5225 O   0  0  0  0  0  0  0  0  0  0  0  0
   58.2047   32.7304   44.3573 N   0  0  0  0  0  0  0  0  0  0  0  0
   59.4982   34.8139   45.8709 C   0  0  0  0  0  0  0  0  0  0  0  0
   57.9475   34.0415   45.4632 S   0  0  0  0  0  0  0  0  0  0  0  0
   57.0043   35.0448   44.8586 O   0  0  0  0  0  0  0  0  0  0  0  0
   57.3333   33.4976   46.7210 O   0  0  0  0  0  0  0  0  0  0  0  0
 24 25  1  0
 25 26  2  0
 25 27  2  0
 25 23  1  0
 23  1  1  0
  1  2  2  0
  2  3  1  0
  3  4  2  0
  4  5  1  0
  5  6  1  0
  6 10  1  0
 10 11  2  0
 10 12  1  0
 12 13  1  0
 13 14  2  0
 14 15  1  0
 15 16  2  0
 16 17  1  0
 16 18  1  0
 18 19  2  0
 19 20  1  0
 20 21  1  0
 20 22  2  0
  6  7  2  0
  7  8  1  0
  8  9  2  0
  9  1  1  0
  8  4  1  0
 19 13  1  0
M  CHG  3  12  -1  21  -1  23  -1
M  END
>  <UniqueID>  (1) 
53

>  <SMILES>  (1) 
CS(=O)(=O)[N-]c1ccc2[nH]c(C(=O)[N-]c3ccc(F)cc3C([NH-])=O)cc2c1

>  <Energy>  (1) 
81.11197547070087

>  <Genealogy>  (1) 
CS(=O)(=O)[N-]c1ccc2[nH]c(C(=O)[N-]c3ccc(F)cc3C([NH-])=O)cc2c1 (protonated)
CS(=O)(=O)[N-]c1ccc2[nH]c(C(=O)[N-]c3ccc(F)cc3C([NH-])=O)cc2c1 (3D coordinates assigned)
CS(=O)(=O)[N-]c1ccc2[nH]c(C(=O)[N-]c3ccc(F)cc3C([NH-])=O)cc2c1 (optimized conformer: 81.11197547070087 kcal/mol)

>  <smiles>  (1) 
CS(=O)(=O)Nc1ccc2[nH]c(C(=O)Nc3ccc(F)cc3C(N)=O)cc2c1

>  <score_type>  (1) 
oracle

>  <origin>  (1) 
adg

>  <m_score__min__energy>  (1) 
-14.289999999999999

>  <m_primary>  (1) 
energy

>  <minimizedAffinity>  (1) 
-7.65071

>  <minimizedRMSD>  (1) 
0.48024

>  <CNNscore>  (1) 
0.5518153906

>  <CNNaffinity>  (1) 
6.0693264008

>  <CNN_VS>  (1) 
3.3491477966

>  <CNNaffinity_variance>  (1) 
0.5313348174

$$$$
46:0
     RDKit          3D

 31 33  0  0  0  0  0  0  0  0999 V2000
   58.8736   29.6504   45.7138 C   0  0  0  0  0  0  0  0  0  0  0  0
   58.0698   29.1920   44.6595 C   0  0  0  0  0  0  0  0  0  0  0  0
   57.3214   30.0957   43.9004 C   0  0  0  0  0  0  0  0  0  0  0  0
   57.3657   31.4605   44.1912 C   0  0  0  0  0  0  0  0  0  0  0  0
   58.1531   31.9296   45.2493 C   0  0  0  0  0  0  0  0  0  0  0  0
   58.8986   31.0220   46.0146 C   0  0  0  0  0  0  0  0  0  0  0  0
   58.2490   33.6604   45.5629 S   0  0  0  0  0  0  0  0  0  0  0  0
   56.9758   34.3400   45.1338 O   0  0  0  0  0  0  0  0  0  0  0  0
   59.3833   34.2327   44.7620 O   0  0  0  0  0  0  0  0  0  0  0  0
   58.5424   33.9563   47.2522 N   0  0  0  0  0  0  0  0  0  0  0  0
   59.8364   34.6117   47.4643 C   0  0  0  0  0  0  0  0  0  0  0  0
   60.9261   33.6003   47.7094 C   0  0  0  0  0  0  0  0  0  0  0  0
   60.7340   32.5534   48.6284 C   0  0  0  0  0  0  0  0  0  0  0  0
   61.7629   31.6389   48.8814 C   0  0  0  0  0  0  0  0  0  0  0  0
   62.9820   31.7521   48.2051 C   0  0  0  0  0  0  0  0  0  0  0  0
   63.1697   32.7698   47.2679 C   0  0  0  0  0  0  0  0  0  0  0  0
   62.1445   33.6876   47.0129 C   0  0  0  0  0  0  0  0  0  0  0  0
   59.6849   28.6808   46.5287 C   0  0  0  0  0  0  0  0  0  0  0  0
   59.2849   26.2966   45.7429 N   0  0  0  0  0  0  0  0  0  0  0  0
   58.9648   27.3716   46.6420 C   0  0  0  0  0  0  0  0  0  0  0  0
   58.1476   27.1963   47.5873 O   0  0  0  0  0  0  0  0  0  0  0  0
   56.4033   23.8839   45.5262 C   0  0  0  0  0  0  0  0  0  0  0  0
   57.0951   22.6784   45.3561 C   0  0  0  0  0  0  0  0  0  0  0  0
   58.4927   22.6684   45.3229 C   0  0  0  0  0  0  0  0  0  0  0  0
   59.2045   23.8631   45.4586 C   0  0  0  0  0  0  0  0  0  0  0  0
   58.5280   25.0778   45.6429 C   0  0  0  0  0  0  0  0  0  0  0  0
   57.1200   25.0827   45.6610 C   0  0  0  0  0  0  0  0  0  0  0  0
   54.0930   25.5402   45.6697 N   0  0  0  0  0  0  0  0  0  0  0  0
   54.6438   23.9105   45.5277 S   0  0  0  0  0  0  0  0  0  0  0  0
   54.1302   23.0986   46.6845 O   0  0  0  0  0  0  0  0  0  0  0  0
   54.1171   23.3180   44.2491 O   0  0  0  0  0  0  0  0  0  0  0  0
 28 29  1  0
 29 30  2  0
 29 31  2  0
 29 22  1  0
 22 23  2  0
 23 24  1  0
 24 25  2  0
 25 26  1  0
 26 19  1  0
 19 20  1  0
 20 21  2  0
 20 18  1  0
 18  1  1  0
  1  2  2  0
  2  3  1  0
  3  4  2  0
  4  5  1  0
  5  7  1  0
  7  8  2  0
  7  9  2  0
  7 10  1  0
 10 11  1  0
 11 12  1  0
 12 13  2  0
 13 14  1  0
 14 15  2  0
 15 16  1  0
 16 17  2  0
  5  6  2  0
 26 27  2  0
 27 22  1  0
  6  1  1  0
 17 12  1  0
M  CHG  2  10  -1  28  -1
M  END
>  <UniqueID>  (2) 
41

>  <SMILES>  (2) 
[NH-]S(=O)(=O)c1cccc(NC(=O)Cc2cccc(S(=O)(=O)[N-]Cc3ccccc3)c2)c1

>  <Energy>  (2) 
48.80203652009044

>  <Genealogy>  (2) 
[NH-]S(=O)(=O)c1cccc(NC(=O)Cc2cccc(S(=O)(=O)[N-]Cc3ccccc3)c2)c1 (protonated)
[NH-]S(=O)(=O)c1cccc(NC(=O)Cc2cccc(S(=O)(=O)[N-]Cc3ccccc3)c2)c1 (3D coordinates assigned)
[NH-]S(=O)(=O)c1cccc(NC(=O)Cc2cccc(S(=O)(=O)[N-]Cc3ccccc3)c2)c1 (optimized conformer: 48.80203652009044 kcal/mol)

>  <smiles>  (2) 
NS(=O)(=O)c1cccc(NC(=O)Cc2cccc(S(=O)(=O)NCc3ccccc3)c2)c1

>  <score_type>  (2) 
oracle

>  <origin>  (2) 
adg

>  <m_score__min__energy>  (2) 
-14.460000000000001

>  <m_primary>  (2) 
energy

>  <minimizedAffinity>  (2) 
-8.47913

>  <minimizedRMSD>  (2) 
0.43669

>  <CNNscore>  (2) 
0.5998955965

>  <CNNaffinity>  (2) 
6.9943203926

>  <CNN_VS>  (2) 
4.1958618164

>  <CNNaffinity_variance>  (2) 
0.0012670098

$$$$
19:0
     RDKit          3D

 31 35  0  0  0  0  0  0  0  0999 V2000
   57.2245   24.5897   44.6217 C   0  0  0  0  0  0  0  0  0  0  0  0
   58.1461   25.2172   45.3725 C   0  0  0  0  0  0  0  0  0  0  0  0
   59.2450   24.7109   46.0628 C   0  0  0  0  0  0  0  0  0  0  0  0
   59.8940   25.7202   46.6872 N   0  0  0  0  0  0  0  0  0  0  0  0
   59.2551   26.8461   46.4219 N   0  0  0  0  0  0  0  0  0  0  0  0
   59.5187   28.1322   46.8179 C   0  0  0  0  0  0  0  0  0  0  0  0
   60.5126   28.5144   47.5855 N   0  0  0  0  0  0  0  0  0  0  0  0
   58.6711   29.1019   46.3792 N   0  0  0  0  0  0  0  0  0  0  0  0
   57.5983   28.8176   45.5813 C   0  0  0  0  0  0  0  0  0  0  0  0
   56.7954   29.7574   45.1817 N   0  0  0  0  0  0  0  0  0  0  0  0
   57.3600   27.5350   45.2019 N   0  0  0  0  0  0  0  0  0  0  0  0
   58.2035   26.5692   45.6356 C   0  0  0  0  0  0  0  0  0  0  0  0
   55.1509   26.3506   46.1014 O   0  0  0  0  0  0  0  0  0  0  0  0
   54.9660   25.0201   45.7355 C   0  0  0  0  0  0  0  0  0  0  0  0
   53.8337   24.3421   45.9912 N   0  0  0  0  0  0  0  0  0  0  0  0
   54.0894   23.1232   45.4746 C   0  0  0  0  0  0  0  0  0  0  0  0
   53.2566   22.1822   45.5155 O   0  0  0  0  0  0  0  0  0  0  0  0
   55.3073   22.9937   44.9112 N   0  0  0  0  0  0  0  0  0  0  0  0
   55.8684   24.2057   45.0765 C   0  0  0  0  0  0  0  0  0  0  0  0
   60.8092   29.0886   48.9123 C   0  0  0  0  0  0  0  0  0  0  0  0
   61.0295   30.5812   48.9972 C   0  0  0  0  0  0  0  0  0  0  0  0
   59.7454   29.9466   49.5585 C   0  0  0  0  0  0  0  0  0  0  0  0
   57.1270   30.7705   44.1786 C   0  0  0  0  0  0  0  0  0  0  0  0
   57.8094   31.9491   44.8217 C   0  0  0  0  0  0  0  0  0  0  0  0
   58.2412   33.0247   44.0318 C   0  0  0  0  0  0  0  0  0  0  0  0
   58.8544   34.1325   44.6251 C   0  0  0  0  0  0  0  0  0  0  0  0
   59.0301   34.1801   46.0114 C   0  0  0  0  0  0  0  0  0  0  0  0
   59.6330   35.2622   46.5668 F   0  0  0  0  0  0  0  0  0  0  0  0
   58.5842   33.1197   46.8161 C   0  0  0  0  0  0  0  0  0  0  0  0
   58.7881   33.1598   48.3040 C   0  0  0  0  0  0  0  0  0  0  0  0
   57.9869   32.0000   46.2149 C   0  0  0  0  0  0  0  0  0  0  0  0
 13 14  1  0
 14 15  1  0
 15 16  1  0
 16 17  2  0
 16 18  1  0
 18 19  1  0
 19  1  1  0
  1  2  2  0
  2  3  1  0
  3  4  2  0
  4  5  1  0
  5  6  1  0
  6  7  2  0
  7 20  1  0
 20 21  1  0
 21 22  1  0
  6  8  1  0
  8  9  1  0
  9 10  2  0
 10 23  1  0
 23 24  1  0
 24 25  2  0
 25 26  1  0
 26 27  2  0
 27 28  1  0
 27 29  1  0
 29 30  1  0
 29 31  2  0
  9 11  1  0
 11 12  2  0
 19 14  2  0
 12  2  1  0
 12  5  1  0
 22 20  1  0
 31 24  1  0
M  CHG  3   8  -1  15  -1  18  -1
M  END
>  <UniqueID>  (3) 
18

>  <SMILES>  (3) 
Cc1cc(CN=c2nc3/c(=C/c4[n-]c(=O)[n-]c4O)cnn3c(=NC3CC3)[n-]2)ccc1F

>  <Energy>  (3) 
411.6444127276279

>  <Genealogy>  (3) 
Cc1cc(CN=c2nc3c(=Cc4[n-]c(=O)[n-]c4O)cnn3c(=NC3CC3)[n-]2)ccc1F (protonated)
Cc1cc(CN=c2nc3/c(=C/c4[n-]c(=O)[n-]c4O)cnn3c(=NC3CC3)[n-]2)ccc1F (cis-trans isomerization)
Cc1cc(CN=c2nc3/c(=C/c4[n-]c(=O)[n-]c4O)cnn3c(=NC3CC3)[n-]2)ccc1F (3D coordinates assigned)
Cc1cc(CN=c2nc3/c(=C/c4[n-]c(=O)[n-]c4O)cnn3c(=NC3CC3)[n-]2)ccc1F (nonaromatic ring conformer: 411.6444127276279 kcal/mol)

>  <smiles>  (3) 
Cc1cc(CN=c2nc3c(=Cc4[nH]c(=O)[nH]c4O)cnn3c(=NC3CC3)[nH]2)ccc1F

>  <score_type>  (3) 
oracle

>  <origin>  (3) 
adg

>  <m_score__min__energy>  (3) 
-14.619999999999999

>  <m_primary>  (3) 
energy

>  <minimizedAffinity>  (3) 
-8.86766

>  <minimizedRMSD>  (3) 
0.36349

>  <CNNscore>  (3) 
0.3411653638

>  <CNNaffinity>  (3) 
6.8313827515

>  <CNN_VS>  (3) 
2.3306312561

>  <CNNaffinity_variance>  (3) 
0.0629381612

$$$$
38:0
     RDKit          3D

 33 37  0  0  0  0  0  0  0  0999 V2000
   57.4130   24.6783   44.6969 C   0  0  0  0  0  0  0  0  0  0  0  0
   58.2764   25.3361   45.4835 C   0  0  0  0  0  0  0  0  0  0  0  0
   59.3822   24.8453   46.1803 C   0  0  0  0  0  0  0  0  0  0  0  0
   60.0110   25.8667   46.8113 N   0  0  0  0  0  0  0  0  0  0  0  0
   59.3402   26.9754   46.5282 N   0  0  0  0  0  0  0  0  0  0  0  0
   59.5859   28.2599   46.9266 C   0  0  0  0  0  0  0  0  0  0  0  0
   60.5842   28.5880   47.6950 N   0  0  0  0  0  0  0  0  0  0  0  0
   58.7457   29.2354   46.4855 N   0  0  0  0  0  0  0  0  0  0  0  0
   57.7006   28.9423   45.6539 C   0  0  0  0  0  0  0  0  0  0  0  0
   56.9594   29.9098   45.2079 N   0  0  0  0  0  0  0  0  0  0  0  0
   57.4722   27.6500   45.2722 N   0  0  0  0  0  0  0  0  0  0  0  0
   58.3039   26.6882   45.7377 C   0  0  0  0  0  0  0  0  0  0  0  0
   55.3159   26.4710   46.1070 O   0  0  0  0  0  0  0  0  0  0  0  0
   55.1123   25.1514   45.7206 C   0  0  0  0  0  0  0  0  0  0  0  0
   53.9440   24.4992   45.8669 N   0  0  0  0  0  0  0  0  0  0  0  0
   54.2047   23.3003   45.2975 C   0  0  0  0  0  0  0  0  0  0  0  0
   53.3419   22.3878   45.2245 O   0  0  0  0  0  0  0  0  0  0  0  0
   55.4544   23.1644   44.8025 N   0  0  0  0  0  0  0  0  0  0  0  0
   56.0347   24.3407   45.0963 C   0  0  0  0  0  0  0  0  0  0  0  0
   60.6065   28.5577   49.1544 C   0  0  0  0  0  0  0  0  0  0  0  0
   61.0546   29.8639   49.7903 C   0  0  0  0  0  0  0  0  0  0  0  0
   59.5742   29.5012   49.7486 C   0  0  0  0  0  0  0  0  0  0  0  0
   57.3768   30.8667   44.1880 C   0  0  0  0  0  0  0  0  0  0  0  0
   57.9943   32.0650   44.8471 C   0  0  0  0  0  0  0  0  0  0  0  0
   58.1668   33.2663   44.1395 C   0  0  0  0  0  0  0  0  0  0  0  0
   58.7573   34.3707   44.7597 C   0  0  0  0  0  0  0  0  0  0  0  0
   59.1707   34.2886   46.0925 C   0  0  0  0  0  0  0  0  0  0  0  0
   58.9861   33.1027   46.8264 C   0  0  0  0  0  0  0  0  0  0  0  0
   58.4277   31.9847   46.1815 C   0  0  0  0  0  0  0  0  0  0  0  0
   59.4630   33.0046   48.2510 C   0  0  0  0  0  0  0  0  0  0  0  0
   58.5086   32.3457   49.0079 F   0  0  0  0  0  0  0  0  0  0  0  0
   59.6662   34.2655   48.7851 F   0  0  0  0  0  0  0  0  0  0  0  0
   60.6588   32.3110   48.3211 F   0  0  0  0  0  0  0  0  0  0  0  0
 13 14  1  0
 14 15  1  0
 15 16  1  0
 16 17  2  0
 16 18  1  0
 18 19  1  0
 19  1  1  0
  1  2  2  0
  2  3  1  0
  3  4  2  0
  4  5  1  0
  5  6  1  0
  6  7  2  0
  7 20  1  0
 20 21  1  0
 21 22  1  0
  6  8  1  0
  8  9  1  0
  9 10  2  0
 10 23  1  0
 23 24  1  0
 24 25  2  0
 25 26  1  0
 26 27  2  0
 27 28  1  0
 28 30  1  0
 30 31  1  0
 30 32  1  0
 30 33  1  0
 28 29  2  0
  9 11  1  0
 11 12  2  0
 19 14  2  0
 12  2  1  0
 12  5  1  0
 22 20  1  0
 29 24  1  0
M  CHG  3   8  -1  15  -1  18  -1
M  END
>  <UniqueID>  (4) 
34

>  <SMILES>  (4) 
O=c1[n-]c(O)c(C=c2cnn3c(=NC4CC4)[n-]/c(=N/Cc4cccc(C(F)(F)F)c4)nc23)[n-]1

>  <Energy>  (4) 
392.99286027642154

>  <Genealogy>  (4) 
O=c1[n-]c(O)c(C=c2cnn3c(=NC4CC4)[n-]c(=NCc4cccc(C(F)(F)F)c4)nc23)[n-]1 (protonated)
O=c1[n-]c(O)c(C=c2cnn3c(=NC4CC4)[n-]/c(=N/Cc4cccc(C(F)(F)F)c4)nc23)[n-]1 (cis-trans isomerization)
O=c1[n-]c(O)c(C=c2cnn3c(=NC4CC4)[n-]/c(=N/Cc4cccc(C(F)(F)F)c4)nc23)[n-]1 (3D coordinates assigned)
O=c1[n-]c(O)c(C=c2cnn3c(=NC4CC4)[n-]/c(=N/Cc4cccc(C(F)(F)F)c4)nc23)[n-]1 (nonaromatic ring conformer: 392.99286027642154 kcal/mol)

>  <smiles>  (4) 
O=c1[nH]c(O)c(C=c2cnn3c(=NC4CC4)[nH]c(=NCc4cccc(C(F)(F)F)c4)nc23)[nH]1

>  <score_type>  (4) 
oracle

>  <origin>  (4) 
adg

>  <m_score__min__energy>  (4) 
-14.539999999999999

>  <m_primary>  (4) 
energy

>  <minimizedAffinity>  (4) 
-9.23766

>  <minimizedRMSD>  (4) 
0.34721

>  <CNNscore>  (4) 
0.3666211963

>  <CNNaffinity>  (4) 
6.7716488838

>  <CNN_VS>  (4) 
2.4826300144

>  <CNNaffinity_variance>  (4) 
0.1150786653

$$$$
44:0
     RDKit          3D

 33 36  0  0  0  0  0  0  0  0999 V2000
   61.0529   30.2164   48.8937 N   0  0  0  0  0  0  0  0  0  0  0  0
   61.9579   31.2367   49.2737 C   0  0  0  0  0  0  0  0  0  0  0  0
   63.2035   31.0706   49.3623 O   0  0  0  0  0  0  0  0  0  0  0  0
   61.3199   32.4820   49.5188 N   0  0  0  0  0  0  0  0  0  0  0  0
   59.8839   32.3288   49.2642 C   0  0  0  0  0  0  0  0  0  0  0  0
   59.7926   30.8758   48.8507 C   0  0  0  0  0  0  0  0  0  0  0  0
   58.7335   30.3085   48.4644 O   0  0  0  0  0  0  0  0  0  0  0  0
   59.4231   33.1957   48.0919 C   0  0  0  0  0  0  0  0  0  0  0  0
   60.2554   34.1913   47.5349 C   0  0  0  0  0  0  0  0  0  0  0  0
   59.8320   34.9382   46.4327 C   0  0  0  0  0  0  0  0  0  0  0  0
   58.5844   34.6937   45.8563 C   0  0  0  0  0  0  0  0  0  0  0  0
   57.7597   33.6947   46.3755 C   0  0  0  0  0  0  0  0  0  0  0  0
   58.1785   32.9424   47.4768 C   0  0  0  0  0  0  0  0  0  0  0  0
   59.1321   32.6583   50.5564 C   0  0  0  0  0  0  0  0  0  0  0  0
   58.0439   31.8857   51.0218 C   0  0  0  0  0  0  0  0  0  0  0  0
   57.4095   32.2034   52.2258 C   0  0  0  0  0  0  0  0  0  0  0  0
   57.8552   33.2825   52.9915 C   0  0  0  0  0  0  0  0  0  0  0  0
   58.9449   34.0396   52.5605 C   0  0  0  0  0  0  0  0  0  0  0  0
   59.5852   33.7258   51.3591 C   0  0  0  0  0  0  0  0  0  0  0  0
   61.3890   28.9645   48.2198 C   0  0  0  0  0  0  0  0  0  0  0  0
   60.6860   27.8083   48.8795 C   0  0  0  0  0  0  0  0  0  0  0  0
   60.5778   27.7873   50.1348 O   0  0  0  0  0  0  0  0  0  0  0  0
   60.1766   26.7005   48.1246 N   0  0  0  0  0  0  0  0  0  0  0  0
   57.5488   27.8414   45.6946 C   0  0  0  0  0  0  0  0  0  0  0  0
   56.7334   26.7029   45.6529 C   0  0  0  0  0  0  0  0  0  0  0  0
   57.0555   25.5812   46.4230 C   0  0  0  0  0  0  0  0  0  0  0  0
   58.1967   25.5892   47.2306 C   0  0  0  0  0  0  0  0  0  0  0  0
   59.0312   26.7119   47.2634 C   0  0  0  0  0  0  0  0  0  0  0  0
   58.6866   27.8510   46.5122 C   0  0  0  0  0  0  0  0  0  0  0  0
   55.4102   29.4762   44.7692 N   0  0  0  0  0  0  0  0  0  0  0  0
   57.1256   29.2668   44.7517 S   0  0  0  0  0  0  0  0  0  0  0  0
   57.5992   29.1006   43.3356 O   0  0  0  0  0  0  0  0  0  0  0  0
   57.7866   30.4816   45.3436 O   0  0  0  0  0  0  0  0  0  0  0  0
 30 31  1  0
 31 32  2  0
 31 33  2  0
 31 24  1  0
 24 25  2  0
 25 26  1  0
 26 27  2  0
 27 28  1  0
 28 23  1  0
 23 21  1  0
 21 22  2  0
 21 20  1  0
 20  1  1  0
  1  2  1  0
  2  3  2  0
  2  4  1  0
  4  5  1  0
  5  8  1  0
  8  9  2  0
  9 10  1  0
 10 11  2  0
 11 12  1  0
 12 13  2  0
  5 14  1  0
 14 15  2  0
 15 16  1  0
 16 17  2  0
 17 18  1  0
 18 19  2  0
  5  6  1  0
  6  7  2  0
 28 29  2  0
 29 24  1  0
  6  1  1  0
 13  8  1  0
 19 14  1  0
M  CHG  2  23  -1  30  -1
M  END
>  <UniqueID>  (5) 
43

>  <SMILES>  (5) 
[NH-]S(=O)(=O)c1cccc([N-]C(=O)CN2C(=O)NC(c3ccccc3)(c3ccccc3)C2=O)c1

>  <Energy>  (5) 
83.20598600362128

>  <Genealogy>  (5) 
[NH-]S(=O)(=O)c1cccc([N-]C(=O)CN2C(=O)NC(c3ccccc3)(c3ccccc3)C2=O)c1 (protonated)
[NH-]S(=O)(=O)c1cccc([N-]C(=O)CN2C(=O)NC(c3ccccc3)(c3ccccc3)C2=O)c1 (3D coordinates assigned)
[NH-]S(=O)(=O)c1cccc([N-]C(=O)CN2C(=O)NC(c3ccccc3)(c3ccccc3)C2=O)c1 (nonaromatic ring conformer: 83.20598600362128 kcal/mol)

>  <smiles>  (5) 
NS(=O)(=O)c1cccc(NC(=O)CN2C(=O)NC(c3ccccc3)(c3ccccc3)C2=O)c1

>  <score_type>  (5) 
oracle

>  <origin>  (5) 
adg

>  <m_score__min__energy>  (5) 
-14.470000000000001

>  <m_primary>  (5) 
energy

>  <minimizedAffinity>  (5) 
-5.93219

>  <minimizedRMSD>  (5) 
0.39533

>  <CNNscore>  (5) 
0.6025897861

>  <CNNaffinity>  (5) 
6.9514231682

>  <CNN_VS>  (5) 
4.1888566017

>  <CNNaffinity_variance>  (5) 
0.4468437433

$$$$
13:0
     RDKit          3D

 30 32  0  0  0  0  0  0  0  0999 V2000
   58.0167   31.7189   44.6305 C   0  0  0  0  0  0  0  0  0  0  0  0
   59.1812   31.0280   44.7201 N   0  0  0  0  0  0  0  0  0  0  0  0
   59.1859   29.6755   44.8517 C   0  0  0  0  0  0  0  0  0  0  0  0
   60.2836   29.0743   44.9825 O   0  0  0  0  0  0  0  0  0  0  0  0
   57.9659   28.9710   44.8753 C   0  0  0  0  0  0  0  0  0  0  0  0
   56.7806   29.7125   44.8205 C   0  0  0  0  0  0  0  0  0  0  0  0
   55.5495   29.0670   44.8847 O   0  0  0  0  0  0  0  0  0  0  0  0
   56.8292   31.0644   44.6930 N   0  0  0  0  0  0  0  0  0  0  0  0
   58.0453   33.5008   44.4555 S   0  0  0  0  0  0  0  0  0  0  0  0
   57.7921   33.8306   46.2355 C   0  0  0  0  0  0  0  0  0  0  0  0
   59.0979   34.0728   46.9458 C   0  0  0  0  0  0  0  0  0  0  0  0
   59.7360   35.1303   46.6998 O   0  0  0  0  0  0  0  0  0  0  0  0
   59.6035   33.1803   47.9484 N   0  0  0  0  0  0  0  0  0  0  0  0
   63.6323   32.8236   49.2441 C   0  0  0  0  0  0  0  0  0  0  0  0
   63.1493   32.0515   48.1694 C   0  0  0  0  0  0  0  0  0  0  0  0
   61.8214   32.1769   47.7536 C   0  0  0  0  0  0  0  0  0  0  0  0
   60.9645   33.0856   48.3856 C   0  0  0  0  0  0  0  0  0  0  0  0
   61.4352   33.8327   49.4748 C   0  0  0  0  0  0  0  0  0  0  0  0
   62.7630   33.7076   49.8925 C   0  0  0  0  0  0  0  0  0  0  0  0
   65.4029   33.1934   50.9706 C   0  0  0  0  0  0  0  0  0  0  0  0
   64.9564   32.7360   49.6981 O   0  0  0  0  0  0  0  0  0  0  0  0
   57.8982   27.5456   45.0288 N   0  0  0  0  0  0  0  0  0  0  0  0
   58.0297   26.8269   46.2634 C   0  0  0  0  0  0  0  0  0  0  0  0
   57.3828   25.7592   46.4395 O   0  0  0  0  0  0  0  0  0  0  0  0
   58.8834   27.3658   47.3486 C   0  0  0  0  0  0  0  0  0  0  0  0
   58.6208   28.6340   47.9016 C   0  0  0  0  0  0  0  0  0  0  0  0
   59.4254   29.1399   48.9268 C   0  0  0  0  0  0  0  0  0  0  0  0
   60.4980   28.3871   49.4124 C   0  0  0  0  0  0  0  0  0  0  0  0
   60.7680   27.1286   48.8730 C   0  0  0  0  0  0  0  0  0  0  0  0
   59.9670   26.6179   47.8474 C   0  0  0  0  0  0  0  0  0  0  0  0
 20 21  1  0
 21 14  1  0
 14 15  2  0
 15 16  1  0
 16 17  2  0
 17 13  1  0
 13 11  1  0
 11 12  2  0
 11 10  1  0
 10  9  1  0
  9  1  1  0
  1  2  2  0
  2  3  1  0
  3  4  2  0
  3  5  1  0
  5 22  1  0
 22 23  1  0
 23 24  2  0
 23 25  1  0
 25 26  2  0
 26 27  1  0
 27 28  2  0
 28 29  1  0
 29 30  2  0
  5  6  2  0
  6  7  1  0
  6  8  1  0
 17 18  1  0
 18 19  2  0
 19 14  1  0
  8  1  1  0
 30 25  1  0
M  CHG  3   8  -1  13  -1  22  -1
M  END
>  <UniqueID>  (6) 
12

>  <SMILES>  (6) 
COc1ccc([N-]C(=O)CSc2nc(=O)c([N-]C(=O)c3ccccc3)c(O)[n-]2)cc1

>  <Energy>  (6) 
55.12636864765485

>  <Genealogy>  (6) 
COc1ccc([N-]C(=O)CSc2nc(=O)c([N-]C(=O)c3ccccc3)c(O)[n-]2)cc1 (protonated)
COc1ccc([N-]C(=O)CSc2nc(=O)c([N-]C(=O)c3ccccc3)c(O)[n-]2)cc1 (3D coordinates assigned)
COc1ccc([N-]C(=O)CSc2nc(=O)c([N-]C(=O)c3ccccc3)c(O)[n-]2)cc1 (optimized conformer: 55.12636864765485 kcal/mol)

>  <smiles>  (6) 
COc1ccc(NC(=O)CSc2nc(=O)c(NC(=O)c3ccccc3)c(O)[nH]2)cc1

>  <score_type>  (6) 
oracle

>  <origin>  (6) 
adg

>  <m_score__min__energy>  (6) 
-14.65

>  <m_primary>  (6) 
energy

>  <minimizedAffinity>  (6) 
-7.63738

>  <minimizedRMSD>  (6) 
0.47612

>  <CNNscore>  (6) 
0.6885048747

>  <CNNaffinity>  (6) 
6.5289816856

>  <CNN_VS>  (6) 
4.4952359200

>  <CNNaffinity_variance>  (6) 
0.1036792919

$$$$
48:0
     RDKit          3D

 34 37  0  0  0  0  0  0  0  0999 V2000
   58.3690   26.6762   44.1344 C   0  0  0  0  0  0  0  0  0  0  0  0
   58.4468   27.2232   45.3575 C   0  0  0  0  0  0  0  0  0  0  0  0
   58.6465   26.5772   46.5820 C   0  0  0  0  0  0  0  0  0  0  0  0
   58.6737   25.2725   46.9127 C   0  0  0  0  0  0  0  0  0  0  0  0
   58.7867   27.6068   47.4977 C   0  0  0  0  0  0  0  0  0  0  0  0
   58.6297   28.7904   46.8788 N   0  0  0  0  0  0  0  0  0  0  0  0
   58.4240   28.5586   45.5921 N   0  0  0  0  0  0  0  0  0  0  0  0
   57.9321   24.2036   46.2168 C   0  0  0  0  0  0  0  0  0  0  0  0
   58.5981   23.2719   45.4113 C   0  0  0  0  0  0  0  0  0  0  0  0
   59.9816   23.3101   45.2719 O   0  0  0  0  0  0  0  0  0  0  0  0
   57.8915   22.3217   44.7549 N   0  0  0  0  0  0  0  0  0  0  0  0
   56.5386   22.2556   44.8426 C   0  0  0  0  0  0  0  0  0  0  0  0
   55.9277   21.3564   44.2033 O   0  0  0  0  0  0  0  0  0  0  0  0
   55.8499   23.1657   45.6024 N   0  0  0  0  0  0  0  0  0  0  0  0
   56.5315   24.1431   46.2833 C   0  0  0  0  0  0  0  0  0  0  0  0
   55.9067   24.9821   46.9905 O   0  0  0  0  0  0  0  0  0  0  0  0
   54.4117   23.0962   45.6854 C   0  0  0  0  0  0  0  0  0  0  0  0
   53.7956   22.2598   46.6310 C   0  0  0  0  0  0  0  0  0  0  0  0
   52.4012   22.1932   46.7114 C   0  0  0  0  0  0  0  0  0  0  0  0
   51.6135   22.9589   45.8475 C   0  0  0  0  0  0  0  0  0  0  0  0
   50.2272   22.8926   45.9279 O   0  0  0  0  0  0  0  0  0  0  0  0
   52.2188   23.7943   44.9033 C   0  0  0  0  0  0  0  0  0  0  0  0
   53.6127   23.8644   44.8219 C   0  0  0  0  0  0  0  0  0  0  0  0
   58.1725   29.6343   44.6285 C   0  0  0  0  0  0  0  0  0  0  0  0
   56.7909   30.1864   44.8040 C   0  0  0  0  0  0  0  0  0  0  0  0
   55.8061   29.3991   44.8182 O   0  0  0  0  0  0  0  0  0  0  0  0
   56.5938   31.6040   44.8649 N   0  0  0  0  0  0  0  0  0  0  0  0
   57.5515   32.5875   45.2885 C   0  0  0  0  0  0  0  0  0  0  0  0
   57.7363   32.8896   46.6512 C   0  0  0  0  0  0  0  0  0  0  0  0
   58.6957   33.8243   47.0446 C   0  0  0  0  0  0  0  0  0  0  0  0
   59.4903   34.4574   46.0881 C   0  0  0  0  0  0  0  0  0  0  0  0
   59.3355   34.1493   44.7354 C   0  0  0  0  0  0  0  0  0  0  0  0
   58.3742   33.2090   44.3260 C   0  0  0  0  0  0  0  0  0  0  0  0
   58.2271   32.8727   42.8667 C   0  0  0  0  0  0  0  0  0  0  0  0
  1  2  2  0
  2  3  1  0
  3  4  2  0
  4  8  1  0
  8  9  2  0
  9 10  1  0
  9 11  1  0
 11 12  1  0
 12 13  2  0
 12 14  1  0
 14 17  1  0
 17 18  2  0
 18 19  1  0
 19 20  2  0
 20 21  1  0
 20 22  1  0
 22 23  2  0
 14 15  1  0
 15 16  2  0
  3  5  1  0
  5  6  2  0
  6  7  1  0
  7 24  1  0
 24 25  1  0
 25 26  2  0
 25 27  1  0
 27 28  1  0
 28 29  2  0
 29 30  1  0
 30 31  2  0
 31 32  1  0
 32 33  2  0
 33 34  1  0
  7  2  1  0
 33 28  1  0
 15  8  1  0
 23 17  1  0
M  CHG  4  10  -1  11  -1  21  -1  27  -1
M  END
>  <UniqueID>  (7) 
46

>  <SMILES>  (7) 
C=c1/c(=C\c2c([O-])[n-]c(=O)n(-c3ccc([O-])cc3)c2=O)cnn1CC(=O)[N-]c1ccccc1C

>  <Energy>  (7) 
113.40769814090437

>  <Genealogy>  (7) 
C=c1c(=Cc2c([O-])[n-]c(=O)n(-c3ccc([O-])cc3)c2=O)cnn1CC(=O)[N-]c1ccccc1C (protonated)
C=c1/c(=C\c2c([O-])[n-]c(=O)n(-c3ccc([O-])cc3)c2=O)cnn1CC(=O)[N-]c1ccccc1C (cis-trans isomerization)
C=c1/c(=C\c2c([O-])[n-]c(=O)n(-c3ccc([O-])cc3)c2=O)cnn1CC(=O)[N-]c1ccccc1C (3D coordinates assigned)
C=c1/c(=C\c2c([O-])[n-]c(=O)n(-c3ccc([O-])cc3)c2=O)cnn1CC(=O)[N-]c1ccccc1C (optimized conformer: 113.40769814090437 kcal/mol)

>  <smiles>  (7) 
C=c1c(=Cc2c(O)[nH]c(=O)n(-c3ccc(O)cc3)c2=O)cnn1CC(=O)Nc1ccccc1C

>  <score_type>  (7) 
oracle

>  <origin>  (7) 
adg

>  <m_score__min__energy>  (7) 
-15.51

>  <m_primary>  (7) 
energy

>  <minimizedAffinity>  (7) 
-7.89130

>  <minimizedRMSD>  (7) 
0.45119

>  <CNNscore>  (7) 
0.1571165770

>  <CNNaffinity>  (7) 
6.3791217804

>  <CNN_VS>  (7) 
1.0022658110

>  <CNNaffinity_variance>  (7) 
0.2644775212

$$$$
28:0
     RDKit          3D

 22 24  0  0  0  0  0  0  0  0999 V2000
   57.4127   28.8271   44.1423 C   0  0  0  0  0  0  0  0  0  0  0  0
   58.5332   27.5654   44.1688 S   0  0  0  0  0  0  0  0  0  0  0  0
   57.7217   26.7327   45.3927 C   0  0  0  0  0  0  0  0  0  0  0  0
   58.0480   25.5704   45.8802 N   0  0  0  0  0  0  0  0  0  0  0  0
   56.6176   27.3941   45.7986 N   0  0  0  0  0  0  0  0  0  0  0  0
   56.4572   28.5624   45.1213 C   0  0  0  0  0  0  0  0  0  0  0  0
   55.4030   29.4233   45.3978 O   0  0  0  0  0  0  0  0  0  0  0  0
   58.2710   32.6099   41.8949 C   0  0  0  0  0  0  0  0  0  0  0  0
   58.1110   32.4506   43.2132 C   0  0  0  0  0  0  0  0  0  0  0  0
   58.2908   33.4518   44.1507 C   0  0  0  0  0  0  0  0  0  0  0  0
   58.0253   32.8772   45.3758 C   0  0  0  0  0  0  0  0  0  0  0  0
   58.1865   33.5556   46.6975 C   0  0  0  0  0  0  0  0  0  0  0  0
   57.7108   31.5752   45.2349 N   0  0  0  0  0  0  0  0  0  0  0  0
   57.7423   31.2986   43.9123 C   0  0  0  0  0  0  0  0  0  0  0  0
   57.5101   30.0840   43.3740 C   0  0  0  0  0  0  0  0  0  0  0  0
   57.9514   24.3059   45.2083 C   0  0  0  0  0  0  0  0  0  0  0  0
   58.8844   23.2763   45.4335 C   0  0  0  0  0  0  0  0  0  0  0  0
   58.7378   22.0422   44.7957 C   0  0  0  0  0  0  0  0  0  0  0  0
   57.6504   21.8166   43.9464 C   0  0  0  0  0  0  0  0  0  0  0  0
   56.7002   22.8231   43.7460 C   0  0  0  0  0  0  0  0  0  0  0  0
   55.6106   22.5938   42.9145 O   0  0  0  0  0  0  0  0  0  0  0  0
   56.8451   24.0604   44.3835 C   0  0  0  0  0  0  0  0  0  0  0  0
  8  9  2  0
  9 10  1  0
 10 11  2  0
 11 12  1  0
 11 13  1  0
 13 14  1  0
 14 15  2  0
 15  1  1  0
  1  2  1  0
  2  3  1  0
  3  4  2  0
  4 16  1  0
 16 17  2  0
 17 18  1  0
 18 19  2  0
 19 20  1  0
 20 21  1  0
 20 22  2  0
  3  5  1  0
  5  6  1  0
  6  7  1  0
 14  9  1  0
  6  1  2  0
 22 16  1  0
M  CHG  3   5  -1   7  -1  21  -1
M  END
>  <UniqueID>  (8) 
28

>  <SMILES>  (8) 
C=c1cc(C)[nH]c1=Cc1s/c(=N\c2cccc([O-])c2)[n-]c1[O-]

>  <Energy>  (8) 
105.96700872113291

>  <Genealogy>  (8) 
C=c1cc(C)[nH]c1=Cc1sc(=Nc2cccc([O-])c2)[n-]c1[O-] (protonated)
C=c1cc(C)[nH]c1=Cc1s/c(=N\c2cccc([O-])c2)[n-]c1[O-] (cis-trans isomerization)
C=c1cc(C)[nH]c1=Cc1s/c(=N\c2cccc([O-])c2)[n-]c1[O-] (3D coordinates assigned)
C=c1cc(C)[nH]c1=Cc1s/c(=N\c2cccc([O-])c2)[n-]c1[O-] (optimized conformer: 105.96700872113291 kcal/mol)

>  <smiles>  (8) 
C=c1cc(C)[nH]c1=Cc1sc(=Nc2cccc(O)c2)[nH]c1O

>  <score_type>  (8) 
oracle

>  <origin>  (8) 
adg

>  <m_score__min__energy>  (8) 
-14.460000000000001

>  <m_primary>  (8) 
energy

>  <minimizedAffinity>  (8) 
-3.97432

>  <minimizedRMSD>  (8) 
0.33467

>  <CNNscore>  (8) 
0.0936781764

>  <CNNaffinity>  (8) 
5.4844260216

>  <CNN_VS>  (8) 
0.5137710571

>  <CNNaffinity_variance>  (8) 
0.1337538809

$$$$
49:0
     RDKit          3D

 36 39  0  0  0  0  0  0  0  0999 V2000
   57.7168   32.1346   45.0590 C   0  0  0  0  0  0  0  0  0  0  0  0
   57.6456   31.9575   43.6688 C   0  0  0  0  0  0  0  0  0  0  0  0
   57.4699   30.6809   43.1289 C   0  0  0  0  0  0  0  0  0  0  0  0
   57.4016   29.5608   43.9622 C   0  0  0  0  0  0  0  0  0  0  0  0
   57.4641   29.7359   45.3557 C   0  0  0  0  0  0  0  0  0  0  0  0
   57.6325   31.0133   45.8987 C   0  0  0  0  0  0  0  0  0  0  0  0
   61.6556   33.5830   49.8350 C   0  0  0  0  0  0  0  0  0  0  0  0
   61.4375   33.0233   50.9449 O   0  0  0  0  0  0  0  0  0  0  0  0
   60.5684   33.8360   48.9220 N   0  0  0  0  0  0  0  0  0  0  0  0
   59.2016   33.3835   49.2236 C   0  0  0  0  0  0  0  0  0  0  0  0
   58.5473   32.7972   47.9646 C   0  0  0  0  0  0  0  0  0  0  0  0
   58.7272   33.6844   46.8049 N   0  0  0  0  0  0  0  0  0  0  0  0
   57.9273   33.4840   45.6240 C   0  0  0  0  0  0  0  0  0  0  0  0
   57.4049   34.4798   45.0503 O   0  0  0  0  0  0  0  0  0  0  0  0
   59.5456   34.8975   46.9172 C   0  0  0  0  0  0  0  0  0  0  0  0
   60.8349   34.5942   47.6923 C   0  0  0  0  0  0  0  0  0  0  0  0
   62.9584   33.9678   49.4905 O   0  0  0  0  0  0  0  0  0  0  0  0
   63.4027   32.1085   48.0011 C   0  0  0  0  0  0  0  0  0  0  0  0
   63.9626   33.0517   49.0619 C   0  0  0  0  0  0  0  0  0  0  0  0
   57.1897   28.2725   43.3647 N   0  0  0  0  0  0  0  0  0  0  0  0
   57.8925   27.0507   43.6377 C   0  0  0  0  0  0  0  0  0  0  0  0
   57.9812   26.1957   42.7159 O   0  0  0  0  0  0  0  0  0  0  0  0
   58.5775   26.7936   44.9310 C   0  0  0  0  0  0  0  0  0  0  0  0
   59.6892   27.5766   45.3098 C   0  0  0  0  0  0  0  0  0  0  0  0
   60.1458   28.5785   44.5124 F   0  0  0  0  0  0  0  0  0  0  0  0
   60.3720   27.3062   46.4954 C   0  0  0  0  0  0  0  0  0  0  0  0
   59.9798   26.2405   47.3032 C   0  0  0  0  0  0  0  0  0  0  0  0
   58.8987   25.4418   46.9316 C   0  0  0  0  0  0  0  0  0  0  0  0
   58.1865   25.7112   45.7553 C   0  0  0  0  0  0  0  0  0  0  0  0
   57.0622   24.8801   45.4217 N   0  0  0  0  0  0  0  0  0  0  0  0
   55.7583   25.1230   45.6341 C   0  0  0  0  0  0  0  0  0  0  0  0
   55.2535   26.2645   46.2362 O   0  0  0  0  0  0  0  0  0  0  0  0
   55.0145   24.0567   45.1878 C   0  0  0  0  0  0  0  0  0  0  0  0
   55.8481   23.1222   44.6873 N   0  0  0  0  0  0  0  0  0  0  0  0
   57.0780   23.6590   44.8568 C   0  0  0  0  0  0  0  0  0  0  0  0
   58.1380   23.0701   44.5054 O   0  0  0  0  0  0  0  0  0  0  0  0
 18 19  1  0
 19 17  1  0
 17  7  1  0
  7  8  2  0
  7  9  1  0
  9 10  1  0
 10 11  1  0
 11 12  1  0
 12 13  1  0
 13 14  2  0
 13  1  1  0
  1  2  2  0
  2  3  1  0
  3  4  2  0
  4 20  1  0
 20 21  1  0
 21 22  2  0
 21 23  1  0
 23 24  2  0
 24 25  1  0
 24 26  1  0
 26 27  2  0
 27 28  1  0
 28 29  2  0
 29 30  1  0
 30 31  1  0
 31 32  1  0
 31 33  2  0
 33 34  1  0
 34 35  1  0
 35 36  2  0
  4  5  1  0
  5  6  2  0
 12 15  1  0
 15 16  1  0
 16  9  1  0
  6  1  1  0
 29 23  1  0
 35 30  1  0
M  CHG  3  20  -1  32  -1  34  -1
M  END
>  <UniqueID>  (9) 
44

>  <SMILES>  (9) 
CCOC(=O)N1CCN(C(=O)c2ccc([N-]C(=O)c3c(F)cccc3-n3c([O-])c[n-]c3=O)cc2)CC1

>  <Energy>  (9) 
108.97708181719938

>  <Genealogy>  (9) 
CCOC(=O)N1CCN(C(=O)c2ccc([N-]C(=O)c3c(F)cccc3-n3c([O-])c[n-]c3=O)cc2)CC1 (protonated)
CCOC(=O)N1CCN(C(=O)c2ccc([N-]C(=O)c3c(F)cccc3-n3c([O-])c[n-]c3=O)cc2)CC1 (3D coordinates assigned)
CCOC(=O)N1CCN(C(=O)c2ccc([N-]C(=O)c3c(F)cccc3-n3c([O-])c[n-]c3=O)cc2)CC1 (nonaromatic ring conformer: 108.97708181719938 kcal/mol)

>  <smiles>  (9) 
CCOC(=O)N1CCN(C(=O)c2ccc(NC(=O)c3c(F)cccc3-n3c(O)c[nH]c3=O)cc2)CC1

>  <score_type>  (9) 
oracle

>  <origin>  (9) 
adg

>  <m_score__min__energy>  (9) 
-14.77

>  <m_primary>  (9) 
energy

>  <minimizedAffinity>  (9) 
-6.59075

>  <minimizedRMSD>  (9) 
0.42931

>  <CNNscore>  (9) 
0.1234496832

>  <CNNaffinity>  (9) 
6.3022704124

>  <CNN_VS>  (9) 
0.7780132890

>  <CNNaffinity_variance>  (9) 
0.2318153381

$$$$
31:0
     RDKit          3D

 27 29  0  0  0  0  0  0  0  0999 V2000
   57.9556   29.6363   45.0328 C   0  0  0  0  0  0  0  0  0  0  0  0
   56.7223   28.9740   45.0854 C   0  0  0  0  0  0  0  0  0  0  0  0
   55.5932   29.5110   44.4772 O   0  0  0  0  0  0  0  0  0  0  0  0
   56.6262   27.7819   45.7200 N   0  0  0  0  0  0  0  0  0  0  0  0
   57.7036   27.1920   46.2965 C   0  0  0  0  0  0  0  0  0  0  0  0
   57.5520   26.0749   46.8621 O   0  0  0  0  0  0  0  0  0  0  0  0
   58.9361   27.7934   46.2413 N   0  0  0  0  0  0  0  0  0  0  0  0
   60.0837   27.1520   46.8457 C   0  0  0  0  0  0  0  0  0  0  0  0
   60.5501   26.0945   46.3402 O   0  0  0  0  0  0  0  0  0  0  0  0
   59.0713   29.0078   45.6122 C   0  0  0  0  0  0  0  0  0  0  0  0
   60.1910   29.5888   45.5732 O   0  0  0  0  0  0  0  0  0  0  0  0
   57.6206   32.1079   44.7998 C   0  0  0  0  0  0  0  0  0  0  0  0
   58.1037   30.9401   44.3449 C   0  0  0  0  0  0  0  0  0  0  0  0
   59.3284   34.3479   48.8254 O   0  0  0  0  0  0  0  0  0  0  0  0
   59.2399   34.2776   47.4369 C   0  0  0  0  0  0  0  0  0  0  0  0
   59.8944   35.2348   46.6560 C   0  0  0  0  0  0  0  0  0  0  0  0
   59.8037   35.1829   45.2623 C   0  0  0  0  0  0  0  0  0  0  0  0
   59.0661   34.1690   44.6441 C   0  0  0  0  0  0  0  0  0  0  0  0
   58.4277   33.1829   45.4190 C   0  0  0  0  0  0  0  0  0  0  0  0
   58.5001   33.2597   46.8192 C   0  0  0  0  0  0  0  0  0  0  0  0
   60.6630   27.6922   48.0420 N   0  0  0  0  0  0  0  0  0  0  0  0
   60.3167   28.9328   48.6758 C   0  0  0  0  0  0  0  0  0  0  0  0
   59.1436   28.9924   49.4397 C   0  0  0  0  0  0  0  0  0  0  0  0
   58.7604   30.1875   50.0574 C   0  0  0  0  0  0  0  0  0  0  0  0
   59.5403   31.3357   49.9030 C   0  0  0  0  0  0  0  0  0  0  0  0
   60.6996   31.2927   49.1227 C   0  0  0  0  0  0  0  0  0  0  0  0
   61.0860   30.0997   48.5046 C   0  0  0  0  0  0  0  0  0  0  0  0
 14 15  1  0
 15 16  2  0
 16 17  1  0
 17 18  2  0
 18 19  1  0
 19 12  1  0
 12 13  2  0
 13  1  1  0
  1  2  2  0
  2  3  1  0
  2  4  1  0
  4  5  1  0
  5  6  2  0
  5  7  1  0
  7  8  1  0
  8  9  2  0
  8 21  1  0
 21 22  1  0
 22 23  2  0
 23 24  1  0
 24 25  2  0
 25 26  1  0
 26 27  2  0
  7 10  1  0
 10 11  2  0
 19 20  2  0
 20 15  1  0
 10  1  1  0
 27 22  1  0
M  CHG  3   3  -1   4  -1  21  -1
M  END
>  <UniqueID>  (10) 
32

>  <SMILES>  (10) 
O=C([N-]c1ccccc1)n1c(=O)[n-]c([O-])c(/C=C\c2cccc(O)c2)c1=O

>  <Energy>  (10) 
65.92569804427826

>  <Genealogy>  (10) 
O=C([N-]c1ccccc1)n1c(=O)[n-]c([O-])c(C=Cc2cccc(O)c2)c1=O (protonated)
O=C([N-]c1ccccc1)n1c(=O)[n-]c([O-])c(/C=C\c2cccc(O)c2)c1=O (cis-trans isomerization)
O=C([N-]c1ccccc1)n1c(=O)[n-]c([O-])c(/C=C\c2cccc(O)c2)c1=O (3D coordinates assigned)
O=C([N-]c1ccccc1)n1c(=O)[n-]c([O-])c(/C=C\c2cccc(O)c2)c1=O (optimized conformer: 65.92569804427826 kcal/mol)

>  <smiles>  (10) 
O=C(Nc1ccccc1)n1c(=O)[nH]c(O)c(C=Cc2cccc(O)c2)c1=O

>  <score_type>  (10) 
oracle

>  <origin>  (10) 
adg

>  <m_score__min__energy>  (10) 
-14.289999999999999

>  <m_primary>  (10) 
energy

>  <minimizedAffinity>  (10) 
-6.68913

>  <minimizedRMSD>  (10) 
0.49896

>  <CNNscore>  (10) 
0.3877738118

>  <CNNaffinity>  (10) 
6.3997058868

>  <CNN_VS>  (10) 
2.4816384315

>  <CNNaffinity_variance>  (10) 
0.0299645793

$$$$
12:0
     RDKit          3D

 27 29  0  0  0  0  0  0  0  0999 V2000
   59.1603   29.5219   46.0754 C   0  0  0  0  0  0  0  0  0  0  0  0
   58.4708   28.7812   47.0450 C   0  0  0  0  0  0  0  0  0  0  0  0
   58.7430   27.4610   47.2153 N   0  0  0  0  0  0  0  0  0  0  0  0
   59.6862   26.8143   46.4722 C   0  0  0  0  0  0  0  0  0  0  0  0
   59.9232   25.5478   46.6459 N   0  0  0  0  0  0  0  0  0  0  0  0
   60.4103   27.5249   45.5092 C   0  0  0  0  0  0  0  0  0  0  0  0
   60.1485   28.8820   45.3145 C   0  0  0  0  0  0  0  0  0  0  0  0
   57.9497   31.4174   44.9123 C   0  0  0  0  0  0  0  0  0  0  0  0
   57.7533   32.8006   44.7559 C   0  0  0  0  0  0  0  0  0  0  0  0
   58.4377   33.7108   45.5620 C   0  0  0  0  0  0  0  0  0  0  0  0
   59.3249   33.2554   46.5361 C   0  0  0  0  0  0  0  0  0  0  0  0
   59.5407   31.8853   46.6982 C   0  0  0  0  0  0  0  0  0  0  0  0
   58.8708   30.9566   45.8852 C   0  0  0  0  0  0  0  0  0  0  0  0
   55.5051   29.9338   44.6759 N   0  0  0  0  0  0  0  0  0  0  0  0
   57.0075   30.3061   43.9050 S   0  0  0  0  0  0  0  0  0  0  0  0
   56.7313   30.9434   42.5726 O   0  0  0  0  0  0  0  0  0  0  0  0
   57.7652   29.0232   43.7040 O   0  0  0  0  0  0  0  0  0  0  0  0
   59.5138   24.4871   45.7246 C   0  0  0  0  0  0  0  0  0  0  0  0
   58.0418   24.2068   45.8648 C   0  0  0  0  0  0  0  0  0  0  0  0
   57.5835   22.8822   45.9367 C   0  0  0  0  0  0  0  0  0  0  0  0
   56.2163   22.6109   46.0395 C   0  0  0  0  0  0  0  0  0  0  0  0
   55.2827   23.6655   46.0679 C   0  0  0  0  0  0  0  0  0  0  0  0
   55.7431   24.9884   45.9929 C   0  0  0  0  0  0  0  0  0  0  0  0
   54.8368   26.0422   46.0167 O   0  0  0  0  0  0  0  0  0  0  0  0
   57.1108   25.2568   45.8910 C   0  0  0  0  0  0  0  0  0  0  0  0
   53.9004   23.4405   46.1696 O   0  0  0  0  0  0  0  0  0  0  0  0
   52.9716   23.6490   45.1107 C   0  0  0  0  0  0  0  0  0  0  0  0
 14 15  1  0
 15 16  2  0
 15 17  2  0
 15  8  1  0
  8  9  2  0
  9 10  1  0
 10 11  2  0
 11 12  1  0
 12 13  2  0
 13  1  1  0
  1  2  2  0
  2  3  1  0
  3  4  1  0
  4  5  2  0
  5 18  1  0
 18 19  1  0
 19 20  2  0
 20 21  1  0
 21 22  2  0
 22 26  1  0
 26 27  1  0
 22 23  1  0
 23 24  1  0
 23 25  2  0
  4  6  1  0
  6  7  2  0
 13  8  1  0
  7  1  1  0
 25 19  1  0
M  CHG  3   3  -1  14  -1  24  -1
M  END
>  <UniqueID>  (11) 
13

>  <SMILES>  (11) 
COc1ccc(C/N=c2/ccc(-c3ccccc3S([NH-])(=O)=O)c[n-]2)cc1[O-]

>  <Energy>  (11) 
53.43847985249806

>  <Genealogy>  (11) 
COc1ccc(CN=c2ccc(-c3ccccc3S([NH-])(=O)=O)c[n-]2)cc1[O-] (protonated)
COc1ccc(C/N=c2/ccc(-c3ccccc3S([NH-])(=O)=O)c[n-]2)cc1[O-] (cis-trans isomerization)
COc1ccc(C/N=c2/ccc(-c3ccccc3S([NH-])(=O)=O)c[n-]2)cc1[O-] (3D coordinates assigned)
COc1ccc(C/N=c2/ccc(-c3ccccc3S([NH-])(=O)=O)c[n-]2)cc1[O-] (optimized conformer: 53.43847985249806 kcal/mol)

>  <smiles>  (11) 
COc1ccc(CN=c2ccc(-c3ccccc3S(N)(=O)=O)c[nH]2)cc1O

>  <score_type>  (11) 
oracle

>  <origin>  (11) 
adg

>  <m_score__min__energy>  (11) 
-16.059999999999999

>  <m_primary>  (11) 
energy

>  <minimizedAffinity>  (11) 
-7.78027

>  <minimizedRMSD>  (11) 
0.46192

>  <CNNscore>  (11) 
0.7326745391

>  <CNNaffinity>  (11) 
6.4311833382

>  <CNN_VS>  (11) 
4.7119641304

>  <CNNaffinity_variance>  (11) 
0.1185698211

$$$$
90:0
     RDKit          3D

 23 24  0  0  0  0  0  0  0  0999 V2000
   59.3077   29.3031   48.6966 C   0  0  0  0  0  0  0  0  0  0  0  0
   58.9960   29.2113   49.9140 O   0  0  0  0  0  0  0  0  0  0  0  0
   59.3878   28.0736   47.8733 C   0  0  0  0  0  0  0  0  0  0  0  0
   60.6280   27.5870   47.4249 C   0  0  0  0  0  0  0  0  0  0  0  0
   60.6927   26.4383   46.6327 C   0  0  0  0  0  0  0  0  0  0  0  0
   59.5221   25.7554   46.2906 C   0  0  0  0  0  0  0  0  0  0  0  0
   58.2806   26.2140   46.7502 C   0  0  0  0  0  0  0  0  0  0  0  0
   58.2176   27.3708   47.5404 C   0  0  0  0  0  0  0  0  0  0  0  0
   56.8042   25.3664   46.3062 S   0  0  0  0  0  0  0  0  0  0  0  0
   55.5557   26.5147   45.9784 N   0  0  0  0  0  0  0  0  0  0  0  0
   56.3755   24.4659   47.4314 O   0  0  0  0  0  0  0  0  0  0  0  0
   57.0440   24.5261   45.0826 O   0  0  0  0  0  0  0  0  0  0  0  0
   59.6171   30.5978   48.1613 N   0  0  0  0  0  0  0  0  0  0  0  0
   57.8080   30.9912   44.8897 C   0  0  0  0  0  0  0  0  0  0  0  0
   58.0061   32.3576   44.6567 C   0  0  0  0  0  0  0  0  0  0  0  0
   58.7209   33.1297   45.5763 C   0  0  0  0  0  0  0  0  0  0  0  0
   59.2475   32.5394   46.7281 C   0  0  0  0  0  0  0  0  0  0  0  0
   59.0703   31.1721   46.9653 C   0  0  0  0  0  0  0  0  0  0  0  0
   58.3234   30.4041   46.0536 C   0  0  0  0  0  0  0  0  0  0  0  0
   55.3484   29.6291   44.4212 N   0  0  0  0  0  0  0  0  0  0  0  0
   56.8911   30.0177   43.7445 S   0  0  0  0  0  0  0  0  0  0  0  0
   57.6392   28.7488   43.4454 O   0  0  0  0  0  0  0  0  0  0  0  0
   56.6998   30.7790   42.4629 O   0  0  0  0  0  0  0  0  0  0  0  0
 20 21  1  0
 21 22  2  0
 21 23  2  0
 21 14  1  0
 14 15  2  0
 15 16  1  0
 16 17  2  0
 17 18  1  0
 18 13  1  0
 13  1  1  0
  1  2  2  0
  1  3  1  0
  3  4  2  0
  4  5  1  0
  5  6  2  0
  6  7  1  0
  7  9  1  0
  9 10  1  0
  9 11  2  0
  9 12  2  0
  7  8  2  0
 18 19  2  0
 19 14  1  0
  8  3  1  0
M  CHG  3  10  -1  13  -1  20  -1
M  END
>  <UniqueID>  (12) 
85

>  <SMILES>  (12) 
[NH-]S(=O)(=O)c1cccc([N-]C(=O)c2cccc(S([NH-])(=O)=O)c2)c1

>  <Energy>  (12) 
39.356651368936156

>  <Genealogy>  (12) 
[NH-]S(=O)(=O)c1cccc([N-]C(=O)c2cccc(S([NH-])(=O)=O)c2)c1 (protonated)
[NH-]S(=O)(=O)c1cccc([N-]C(=O)c2cccc(S([NH-])(=O)=O)c2)c1 (3D coordinates assigned)
[NH-]S(=O)(=O)c1cccc([N-]C(=O)c2cccc(S([NH-])(=O)=O)c2)c1 (optimized conformer: 39.356651368936156 kcal/mol)

>  <smiles>  (12) 
NS(=O)(=O)c1cccc(NC(=O)c2cccc(S(N)(=O)=O)c2)c1

>  <score_type>  (12) 
oracle

>  <origin>  (12) 
adg

>  <m_score__min__energy>  (12) 
-14.32

>  <m_primary>  (12) 
energy

>  <minimizedAffinity>  (12) 
-7.50500

>  <minimizedRMSD>  (12) 
0.34879

>  <CNNscore>  (12) 
0.9486221075

>  <CNNaffinity>  (12) 
6.6791992188

>  <CNN_VS>  (12) 
6.3360362053

>  <CNNaffinity_variance>  (12) 
0.0780841932

$$$$
72:0
     RDKit          3D

 37 41  0  0  0  0  0  0  0  0999 V2000
   58.8948   31.7193   46.3944 C   0  0  0  0  0  0  0  0  0  0  0  0
   59.8599   30.7298   46.1654 C   0  0  0  0  0  0  0  0  0  0  0  0
   60.9413   30.5771   47.0379 C   0  0  0  0  0  0  0  0  0  0  0  0
   61.0679   31.4124   48.1509 C   0  0  0  0  0  0  0  0  0  0  0  0
   60.1246   32.4221   48.3792 C   0  0  0  0  0  0  0  0  0  0  0  0
   59.0567   32.5907   47.4886 C   0  0  0  0  0  0  0  0  0  0  0  0
   60.2075   33.4314   49.8210 S   0  0  0  0  0  0  0  0  0  0  0  0
   59.6033   34.7715   49.5090 O   0  0  0  0  0  0  0  0  0  0  0  0
   61.6389   33.6245   50.2442 O   0  0  0  0  0  0  0  0  0  0  0  0
   59.3092   32.6603   51.1037 N   0  0  0  0  0  0  0  0  0  0  0  0
   59.7651   31.2627   51.2708 C   0  0  0  0  0  0  0  0  0  0  0  0
   59.3333   30.6542   52.6204 C   0  0  0  0  0  0  0  0  0  0  0  0
   58.2556   31.4428   53.2250 N   0  0  0  0  0  0  0  0  0  0  0  0
   58.4233   32.8950   53.3669 C   0  0  0  0  0  0  0  0  0  0  0  0
   59.4461   33.4216   52.3527 C   0  0  0  0  0  0  0  0  0  0  0  0
   57.0882   30.7957   53.7599 C   0  0  0  0  0  0  0  0  0  0  0  0
   57.0368   30.4568   55.1225 C   0  0  0  0  0  0  0  0  0  0  0  0
   55.9055   29.8305   55.6516 C   0  0  0  0  0  0  0  0  0  0  0  0
   54.8141   29.5454   54.8279 C   0  0  0  0  0  0  0  0  0  0  0  0
   54.8484   29.8931   53.4743 C   0  0  0  0  0  0  0  0  0  0  0  0
   55.9794   30.5210   52.9354 C   0  0  0  0  0  0  0  0  0  0  0  0
   56.0004   30.8926   51.5901 O   0  0  0  0  0  0  0  0  0  0  0  0
   57.7841   31.8155   45.4874 N   0  0  0  0  0  0  0  0  0  0  0  0
   55.8659   30.7403   44.6648 O   0  0  0  0  0  0  0  0  0  0  0  0
   57.1193   30.7496   44.7953 C   0  0  0  0  0  0  0  0  0  0  0  0
   57.9350   29.6325   44.2186 C   0  0  0  0  0  0  0  0  0  0  0  0
   57.7005   28.3393   44.9614 C   0  0  0  0  0  0  0  0  0  0  0  0
   56.4144   27.9489   45.1671 N   0  0  0  0  0  0  0  0  0  0  0  0
   56.1062   26.8318   45.8235 N   0  0  0  0  0  0  0  0  0  0  0  0
   57.0620   26.0148   46.3314 C   0  0  0  0  0  0  0  0  0  0  0  0
   56.7177   24.9654   46.9403 O   0  0  0  0  0  0  0  0  0  0  0  0
   58.4175   26.3511   46.1700 C   0  0  0  0  0  0  0  0  0  0  0  0
   59.4434   25.5337   46.6868 C   0  0  0  0  0  0  0  0  0  0  0  0
   60.7806   25.8989   46.5314 C   0  0  0  0  0  0  0  0  0  0  0  0
   61.1123   27.0745   45.8568 C   0  0  0  0  0  0  0  0  0  0  0  0
   60.1107   27.8861   45.3236 C   0  0  0  0  0  0  0  0  0  0  0  0
   58.7507   27.5392   45.4752 C   0  0  0  0  0  0  0  0  0  0  0  0
 24 25  2  0
 25 26  1  0
 26 27  1  0
 27 28  2  0
 28 29  1  0
 29 30  1  0
 30 31  2  0
 30 32  1  0
 32 33  2  0
 33 34  1  0
 34 35  2  0
 35 36  1  0
 36 37  2  0
 25 23  1  0
 23  1  1  0
  1  2  2  0
  2  3  1  0
  3  4  2  0
  4  5  1  0
  5  7  1  0
  7  8  2  0
  7  9  2  0
  7 10  1  0
 10 11  1  0
 11 12  1  0
 12 13  1  0
 13 16  1  0
 16 17  2  0
 17 18  1  0
 18 19  2  0
 19 20  1  0
 20 21  2  0
 21 22  1  0
 13 14  1  0
 14 15  1  0
  5  6  2  0
 37 27  1  0
  6  1  1  0
 37 32  1  0
 15 10  1  0
 21 16  1  0
M  CHG  2  23  -1  29  -1
M  END
>  <UniqueID>  (13) 
65

>  <SMILES>  (13) 
O=C(Cc1n[n-]c(=O)c2ccccc12)[N-]c1cccc(S(=O)(=O)N2CCN(c3ccccc3O)CC2)c1

>  <Energy>  (13) 
82.89208037807818

>  <Genealogy>  (13) 
O=C(Cc1n[n-]c(=O)c2ccccc12)[N-]c1cccc(S(=O)(=O)N2CCN(c3ccccc3O)CC2)c1 (protonated)
O=C(Cc1n[n-]c(=O)c2ccccc12)[N-]c1cccc(S(=O)(=O)N2CCN(c3ccccc3O)CC2)c1 (3D coordinates assigned)
O=C(Cc1n[n-]c(=O)c2ccccc12)[N-]c1cccc(S(=O)(=O)N2CCN(c3ccccc3O)CC2)c1 (nonaromatic ring conformer: 82.89208037807818 kcal/mol)

>  <smiles>  (13) 
O=C(Cc1n[nH]c(=O)c2ccccc12)Nc1cccc(S(=O)(=O)N2CCN(c3ccccc3O)CC2)c1

>  <score_type>  (13) 
oracle

>  <origin>  (13) 
adg

>  <m_score__min__energy>  (13) 
-14.859999999999999

>  <m_primary>  (13) 
energy

>  <minimizedAffinity>  (13) 
-6.07065

>  <minimizedRMSD>  (13) 
0.49144

>  <CNNscore>  (13) 
0.3488054574

>  <CNNaffinity>  (13) 
7.2519898415

>  <CNN_VS>  (13) 
2.5295336246

>  <CNNaffinity_variance>  (13) 
0.0766573027

$$$$
2:0
     RDKit          3D

 28 30  0  0  0  0  0  0  0  0999 V2000
   58.1158   33.5464   44.9079 C   0  0  0  0  0  0  0  0  0  0  0  0
   57.2454   33.6590   46.1849 C   0  0  0  0  0  0  0  0  0  0  0  0
   57.9680   33.1822   47.4524 C   0  0  0  0  0  0  0  0  0  0  0  0
   59.2918   33.8078   47.5891 N   0  0  0  0  0  0  0  0  0  0  0  0
   59.9357   33.8194   48.8751 C   0  0  0  0  0  0  0  0  0  0  0  0
   59.2723   34.1522   49.8926 O   0  0  0  0  0  0  0  0  0  0  0  0
   59.8790   34.5474   46.4624 C   0  0  0  0  0  0  0  0  0  0  0  0
   59.6270   33.7811   45.1631 C   0  0  0  0  0  0  0  0  0  0  0  0
   61.3580   33.4316   49.0272 C   0  0  0  0  0  0  0  0  0  0  0  0
   61.9360   32.4723   48.1756 C   0  0  0  0  0  0  0  0  0  0  0  0
   63.2739   32.1006   48.3335 C   0  0  0  0  0  0  0  0  0  0  0  0
   64.0473   32.6751   49.3463 C   0  0  0  0  0  0  0  0  0  0  0  0
   65.3433   32.3105   49.4977 F   0  0  0  0  0  0  0  0  0  0  0  0
   63.4789   33.6194   50.2058 C   0  0  0  0  0  0  0  0  0  0  0  0
   62.1412   33.9938   50.0514 C   0  0  0  0  0  0  0  0  0  0  0  0
   57.8973   32.2292   44.2112 C   0  0  0  0  0  0  0  0  0  0  0  0
   58.0892   32.1338   42.9690 O   0  0  0  0  0  0  0  0  0  0  0  0
   57.3880   31.1174   44.9584 N   0  0  0  0  0  0  0  0  0  0  0  0
   58.1485   27.5865   45.9014 C   0  0  0  0  0  0  0  0  0  0  0  0
   59.4810   27.6882   46.3202 C   0  0  0  0  0  0  0  0  0  0  0  0
   60.1323   28.9235   46.2893 C   0  0  0  0  0  0  0  0  0  0  0  0
   59.4616   30.0627   45.8347 C   0  0  0  0  0  0  0  0  0  0  0  0
   58.1277   29.9695   45.3971 C   0  0  0  0  0  0  0  0  0  0  0  0
   57.4729   28.7308   45.4520 C   0  0  0  0  0  0  0  0  0  0  0  0
   55.6094   26.2823   46.0247 N   0  0  0  0  0  0  0  0  0  0  0  0
   57.3189   26.0346   45.9687 S   0  0  0  0  0  0  0  0  0  0  0  0
   57.6701   25.2286   44.7505 O   0  0  0  0  0  0  0  0  0  0  0  0
   57.7373   25.2821   47.2015 O   0  0  0  0  0  0  0  0  0  0  0  0
 25 26  1  0
 26 27  2  0
 26 28  2  0
 26 19  1  0
 19 20  2  0
 20 21  1  0
 21 22  2  0
 22 23  1  0
 23 18  1  0
 18 16  1  0
 16 17  2  0
 16  1  1  0
  1  2  1  0
  2  3  1  0
  3  4  1  0
  4  5  1  0
  5  6  2  0
  5  9  1  0
  9 10  2  0
 10 11  1  0
 11 12  2  0
 12 13  1  0
 12 14  1  0
 14 15  2  0
  4  7  1  0
  7  8  1  0
 23 24  2  0
 24 19  1  0
  8  1  1  0
 15  9  1  0
M  CHG  2  18  -1  25  -1
M  END
>  <UniqueID>  (14) 
3

>  <SMILES>  (14) 
[NH-]S(=O)(=O)c1cccc([N-]C(=O)C2CCN(C(=O)c3ccc(F)cc3)CC2)c1

>  <Energy>  (14) 
58.05085184626405

>  <Genealogy>  (14) 
[NH-]S(=O)(=O)c1cccc([N-]C(=O)C2CCN(C(=O)c3ccc(F)cc3)CC2)c1 (protonated)
[NH-]S(=O)(=O)c1cccc([N-]C(=O)C2CCN(C(=O)c3ccc(F)cc3)CC2)c1 (3D coordinates assigned)
[NH-]S(=O)(=O)c1cccc([N-]C(=O)C2CCN(C(=O)c3ccc(F)cc3)CC2)c1 (nonaromatic ring conformer: 58.05085184626405 kcal/mol)

>  <smiles>  (14) 
NS(=O)(=O)c1cccc(NC(=O)C2CCN(C(=O)c3ccc(F)cc3)CC2)c1

>  <score_type>  (14) 
oracle

>  <origin>  (14) 
adg

>  <m_score__min__energy>  (14) 
-14.039999999999999

>  <m_primary>  (14) 
energy

>  <minimizedAffinity>  (14) 
-9.24947

>  <minimizedRMSD>  (14) 
0.48666

>  <CNNscore>  (14) 
0.7755497694

>  <CNNaffinity>  (14) 
7.1434726715

>  <CNN_VS>  (14) 
5.5401186943

>  <CNNaffinity_variance>  (14) 
0.0852881968

$$$$
76:0
     RDKit          3D

 32 35  0  0  0  0  0  0  0  0999 V2000
   60.4573   29.5528   47.2263 C   0  0  0  0  0  0  0  0  0  0  0  0
   60.4878   29.2914   45.8563 C   0  0  0  0  0  0  0  0  0  0  0  0
   59.5495   28.4256   45.2962 C   0  0  0  0  0  0  0  0  0  0  0  0
   58.5739   27.8337   46.1086 C   0  0  0  0  0  0  0  0  0  0  0  0
   57.7110   27.0290   45.5494 N   0  0  0  0  0  0  0  0  0  0  0  0
   58.5810   28.0825   47.4572 N   0  0  0  0  0  0  0  0  0  0  0  0
   59.4918   28.9254   48.0178 C   0  0  0  0  0  0  0  0  0  0  0  0
   57.0389   25.8971   46.1257 C   0  0  0  0  0  0  0  0  0  0  0  0
   56.4639   26.0004   47.2447 O   0  0  0  0  0  0  0  0  0  0  0  0
   56.9325   24.6332   45.3599 C   0  0  0  0  0  0  0  0  0  0  0  0
   58.0494   23.7981   45.1921 C   0  0  0  0  0  0  0  0  0  0  0  0
   57.9377   22.6113   44.4639 C   0  0  0  0  0  0  0  0  0  0  0  0
   56.7070   22.2683   43.9009 C   0  0  0  0  0  0  0  0  0  0  0  0
   56.5882   21.2040   43.2400 O   0  0  0  0  0  0  0  0  0  0  0  0
   55.6343   23.0838   44.0668 N   0  0  0  0  0  0  0  0  0  0  0  0
   55.7162   24.2442   44.7745 C   0  0  0  0  0  0  0  0  0  0  0  0
   61.6568   30.6628   47.9627 S   0  0  0  0  0  0  0  0  0  0  0  0
   59.0100   33.2929   46.2903 C   0  0  0  0  0  0  0  0  0  0  0  0
   59.0406   34.3626   47.2048 C   0  0  0  0  0  0  0  0  0  0  0  0
   59.8581   34.3060   48.3363 C   0  0  0  0  0  0  0  0  0  0  0  0
   60.6568   33.1844   48.5706 C   0  0  0  0  0  0  0  0  0  0  0  0
   61.4478   33.1433   49.6726 F   0  0  0  0  0  0  0  0  0  0  0  0
   60.6369   32.1103   47.6707 C   0  0  0  0  0  0  0  0  0  0  0  0
   59.8212   32.1678   46.5341 C   0  0  0  0  0  0  0  0  0  0  0  0
   57.3678   34.3349   44.9314 O   0  0  0  0  0  0  0  0  0  0  0  0
   58.1375   33.3504   45.0931 C   0  0  0  0  0  0  0  0  0  0  0  0
   58.1700   32.2758   44.1358 N   0  0  0  0  0  0  0  0  0  0  0  0
   57.3634   31.2580   44.0319 C   0  0  0  0  0  0  0  0  0  0  0  0
   57.0122   30.5650   42.8841 C   0  0  0  0  0  0  0  0  0  0  0  0
   56.1500   29.5966   43.3516 C   0  0  0  0  0  0  0  0  0  0  0  0
   56.0265   29.7322   44.6531 O   0  0  0  0  0  0  0  0  0  0  0  0
   56.7431   30.7230   45.0976 N   0  0  0  0  0  0  0  0  0  0  0  0
 25 26  2  0
 26 27  1  0
 27 28  2  0
 28 29  1  0
 29 30  2  0
 30 31  1  0
 31 32  1  0
 26 18  1  0
 18 19  2  0
 19 20  1  0
 20 21  2  0
 21 22  1  0
 21 23  1  0
 23 17  1  0
 17  1  1  0
  1  2  1  0
  2  3  2  0
  3  4  1  0
  4  5  2  0
  5  8  1  0
  8  9  2  0
  8 10  1  0
 10 11  1  0
 11 12  2  0
 12 13  1  0
 13 14  2  0
 13 15  1  0
 15 16  1  0
  4  6  1  0
  6  7  1  0
 23 24  2  0
 32 28  1  0
 24 18  1  0
  7  1  2  0
 16 10  2  0
M  CHG  2  15  -1  32  -1
M  END
>  <UniqueID>  (15) 
71

>  <SMILES>  (15) 
O=C(N=c1cco[n-]1)c1ccc(F)c(Sc2ccc(=NC(=O)c3ccc(=O)[n-]c3)[nH]c2)c1

>  <Energy>  (15) 
89.85594159467045

>  <Genealogy>  (15) 
O=C(N=c1cco[n-]1)c1ccc(F)c(Sc2ccc(=NC(=O)c3ccc(=O)[n-]c3)[nH]c2)c1 (protonated)
O=C(N=c1cco[n-]1)c1ccc(F)c(Sc2ccc(=NC(=O)c3ccc(=O)[n-]c3)[nH]c2)c1 (3D coordinates assigned)
O=C(N=c1cco[n-]1)c1ccc(F)c(Sc2ccc(=NC(=O)c3ccc(=O)[n-]c3)[nH]c2)c1 (optimized conformer: 89.85594159467045 kcal/mol)

>  <smiles>  (15) 
O=C(N=c1ccc(Sc2cc(C(=O)N=c3cco[nH]3)ccc2F)c[nH]1)c1ccc(=O)[nH]c1

>  <score_type>  (15) 
oracle

>  <origin>  (15) 
adg

>  <m_score__min__energy>  (15) 
-14.119999999999999

>  <m_primary>  (15) 
energy

>  <minimizedAffinity>  (15) 
-8.71222

>  <minimizedRMSD>  (15) 
0.45887

>  <CNNscore>  (15) 
0.2382623255

>  <CNNaffinity>  (15) 
6.9466147423

>  <CNN_VS>  (15) 
1.6551165581

>  <CNNaffinity_variance>  (15) 
0.0635805726

$$$$
6:0
     RDKit          3D

 29 32  0  0  0  0  0  0  0  0999 V2000
   57.6724   24.5995   45.0528 C   0  0  0  0  0  0  0  0  0  0  0  0
   58.3361   25.5675   45.7169 C   0  0  0  0  0  0  0  0  0  0  0  0
   59.1120   25.3974   46.8562 C   0  0  0  0  0  0  0  0  0  0  0  0
   59.5632   26.6499   47.2169 C   0  0  0  0  0  0  0  0  0  0  0  0
   60.4417   26.9296   48.3988 C   0  0  0  0  0  0  0  0  0  0  0  0
   59.1096   27.5834   46.3514 N   0  0  0  0  0  0  0  0  0  0  0  0
   58.3513   26.9359   45.4308 C   0  0  0  0  0  0  0  0  0  0  0  0
   57.7553   27.5373   44.3891 C   0  0  0  0  0  0  0  0  0  0  0  0
   55.3772   26.4565   46.0597 O   0  0  0  0  0  0  0  0  0  0  0  0
   55.2560   25.1059   45.7409 C   0  0  0  0  0  0  0  0  0  0  0  0
   54.1118   24.4186   45.8812 N   0  0  0  0  0  0  0  0  0  0  0  0
   54.4691   23.1642   45.5339 C   0  0  0  0  0  0  0  0  0  0  0  0
   53.6600   22.2011   45.5402 O   0  0  0  0  0  0  0  0  0  0  0  0
   55.7663   23.0217   45.1863 N   0  0  0  0  0  0  0  0  0  0  0  0
   56.2589   24.2675   45.2984 C   0  0  0  0  0  0  0  0  0  0  0  0
   59.3727   28.9960   46.4248 C   0  0  0  0  0  0  0  0  0  0  0  0
   58.3479   29.9192   46.1739 C   0  0  0  0  0  0  0  0  0  0  0  0
   58.5974   31.2915   46.2623 C   0  0  0  0  0  0  0  0  0  0  0  0
   59.8791   31.7580   46.5984 C   0  0  0  0  0  0  0  0  0  0  0  0
   60.8999   30.8310   46.8621 C   0  0  0  0  0  0  0  0  0  0  0  0
   60.6483   29.4597   46.7727 C   0  0  0  0  0  0  0  0  0  0  0  0
   60.1377   33.2327   46.7365 C   0  0  0  0  0  0  0  0  0  0  0  0
   61.0965   33.4877   47.8668 C   0  0  0  0  0  0  0  0  0  0  0  0
   62.4813   33.5241   47.6263 C   0  0  0  0  0  0  0  0  0  0  0  0
   63.3744   33.7232   48.6834 C   0  0  0  0  0  0  0  0  0  0  0  0
   62.8941   33.8793   49.9876 C   0  0  0  0  0  0  0  0  0  0  0  0
   63.7834   34.0767   51.0376 O   0  0  0  0  0  0  0  0  0  0  0  0
   61.5188   33.8330   50.2356 C   0  0  0  0  0  0  0  0  0  0  0  0
   60.6227   33.6335   49.1815 C   0  0  0  0  0  0  0  0  0  0  0  0
  9 10  1  0
 10 11  1  0
 11 12  1  0
 12 13  2  0
 12 14  1  0
 14 15  1  0
 15  1  1  0
  1  2  2  0
  2  3  1  0
  3  4  2  0
  4  5  1  0
  4  6  1  0
  6 16  1  0
 16 17  2  0
 17 18  1  0
 18 19  2  0
 19 22  1  0
 22 23  1  0
 23 24  2  0
 24 25  1  0
 25 26  2  0
 26 27  1  0
 26 28  1  0
 28 29  2  0
 19 20  1  0
 20 21  2  0
  6  7  1  0
  7  8  2  0
 15 10  2  0
  7  2  1  0
 21 16  1  0
 29 23  1  0
M  CHG  3  11  -1  14  -1  27  -1
M  END
>  <UniqueID>  (16) 
7

>  <SMILES>  (16) 
C=c1/c(=C/c2[n-]c(=O)[n-]c2O)cc(C)n1-c1ccc(Cc2ccc([O-])cc2)cc1

>  <Energy>  (16) 
120.56935202410475

>  <Genealogy>  (16) 
C=c1c(=Cc2[n-]c(=O)[n-]c2O)cc(C)n1-c1ccc(Cc2ccc([O-])cc2)cc1 (protonated)
C=c1/c(=C/c2[n-]c(=O)[n-]c2O)cc(C)n1-c1ccc(Cc2ccc([O-])cc2)cc1 (cis-trans isomerization)
C=c1/c(=C/c2[n-]c(=O)[n-]c2O)cc(C)n1-c1ccc(Cc2ccc([O-])cc2)cc1 (3D coordinates assigned)
C=c1/c(=C/c2[n-]c(=O)[n-]c2O)cc(C)n1-c1ccc(Cc2ccc([O-])cc2)cc1 (optimized conformer: 120.56935202410475 kcal/mol)

>  <smiles>  (16) 
C=c1c(=Cc2[nH]c(=O)[nH]c2O)cc(C)n1-c1ccc(Cc2ccc(O)cc2)cc1

>  <score_type>  (16) 
oracle

>  <origin>  (16) 
adg

>  <m_score__min__energy>  (16) 
-14.210000000000001

>  <m_primary>  (16) 
energy

>  <minimizedAffinity>  (16) 
-9.06210

>  <minimizedRMSD>  (16) 
0.38390

>  <CNNscore>  (16) 
0.4624532759

>  <CNNaffinity>  (16) 
6.8347702026

>  <CNN_VS>  (16) 
3.1607618332

>  <CNNaffinity_variance>  (16) 
0.0353659876

$$$$
26:0
     RDKit          3D

 31 34  0  0  0  0  0  0  0  0999 V2000
   59.0567   26.3774   46.0381 C   0  0  0  0  0  0  0  0  0  0  0  0
   58.2005   26.9283   45.0681 C   0  0  0  0  0  0  0  0  0  0  0  0
   57.8171   28.2695   45.1463 C   0  0  0  0  0  0  0  0  0  0  0  0
   58.2925   29.0766   46.1810 C   0  0  0  0  0  0  0  0  0  0  0  0
   59.1655   28.5485   47.1406 C   0  0  0  0  0  0  0  0  0  0  0  0
   59.5462   27.2020   47.0654 C   0  0  0  0  0  0  0  0  0  0  0  0
   59.7383   29.5639   48.4635 S   0  0  0  0  0  0  0  0  0  0  0  0
   58.5582   30.0626   49.2516 O   0  0  0  0  0  0  0  0  0  0  0  0
   60.6054   28.7244   49.3610 O   0  0  0  0  0  0  0  0  0  0  0  0
   60.6523   30.9232   47.8595 N   0  0  0  0  0  0  0  0  0  0  0  0
   62.0411   31.0557   48.3225 C   0  0  0  0  0  0  0  0  0  0  0  0
   62.8183   32.1026   47.5217 C   0  0  0  0  0  0  0  0  0  0  0  0
   62.0559   33.4237   47.4966 C   0  0  0  0  0  0  0  0  0  0  0  0
   60.6801   33.2215   46.9265 C   0  0  0  0  0  0  0  0  0  0  0  0
   60.0515   34.2713   46.2433 C   0  0  0  0  0  0  0  0  0  0  0  0
   58.7714   34.1002   45.7123 C   0  0  0  0  0  0  0  0  0  0  0  0
   58.1121   32.8811   45.8622 C   0  0  0  0  0  0  0  0  0  0  0  0
   58.7220   31.8332   46.5581 C   0  0  0  0  0  0  0  0  0  0  0  0
   60.0050   31.9939   47.1227 C   0  0  0  0  0  0  0  0  0  0  0  0
   59.4602   24.9536   45.9759 C   0  0  0  0  0  0  0  0  0  0  0  0
   60.6671   24.6640   45.7595 O   0  0  0  0  0  0  0  0  0  0  0  0
   58.5159   23.8860   46.1313 N   0  0  0  0  0  0  0  0  0  0  0  0
   56.1697   23.9446   45.1971 C   0  0  0  0  0  0  0  0  0  0  0  0
   55.5949   23.3958   44.0698 C   0  0  0  0  0  0  0  0  0  0  0  0
   56.5916   22.6666   43.4574 C   0  0  0  0  0  0  0  0  0  0  0  0
   56.4236   21.9360   42.2872 O   0  0  0  0  0  0  0  0  0  0  0  0
   57.7560   22.7356   44.1302 N   0  0  0  0  0  0  0  0  0  0  0  0
   57.4990   23.5306   45.1865 C   0  0  0  0  0  0  0  0  0  0  0  0
   54.8636   25.9618   45.9191 N   0  0  0  0  0  0  0  0  0  0  0  0
   55.4426   24.6978   46.2345 C   0  0  0  0  0  0  0  0  0  0  0  0
   55.2915   24.2201   47.3889 O   0  0  0  0  0  0  0  0  0  0  0  0
 29 30  1  0
 30 31  2  0
 30 23  1  0
 23 24  1  0
 24 25  2  0
 25 26  1  0
 25 27  1  0
 27 28  1  0
 28 22  1  0
 22 20  1  0
 20 21  2  0
 20  1  1  0
  1  2  2  0
  2  3  1  0
  3  4  2  0
  4  5  1  0
  5  7  1  0
  7  8  2  0
  7  9  2  0
  7 10  1  0
 10 11  1  0
 11 12  1  0
 12 13  1  0
 13 14  1  0
 14 15  2  0
 15 16  1  0
 16 17  2  0
 17 18  1  0
 18 19  2  0
  5  6  2  0
 28 23  2  0
  6  1  1  0
 19 10  1  0
 19 14  1  0
M  CHG  3  22  -1  27  -1  29  -1
M  END
>  <UniqueID>  (17) 
22

>  <SMILES>  (17) 
[NH-]C(=O)c1cc(O)[n-]c1[N-]C(=O)c1cccc(S(=O)(=O)N2CCCc3ccccc32)c1

>  <Energy>  (17) 
88.28071675719424

>  <Genealogy>  (17) 
[NH-]C(=O)c1cc(O)[n-]c1[N-]C(=O)c1cccc(S(=O)(=O)N2CCCc3ccccc32)c1 (protonated)
[NH-]C(=O)c1cc(O)[n-]c1[N-]C(=O)c1cccc(S(=O)(=O)N2CCCc3ccccc32)c1 (3D coordinates assigned)
[NH-]C(=O)c1cc(O)[n-]c1[N-]C(=O)c1cccc(S(=O)(=O)N2CCCc3ccccc32)c1 (nonaromatic ring conformer: 88.28071675719424 kcal/mol)

>  <smiles>  (17) 
NC(=O)c1cc(O)[nH]c1NC(=O)c1cccc(S(=O)(=O)N2CCCc3ccccc32)c1

>  <score_type>  (17) 
oracle

>  <origin>  (17) 
adg

>  <m_score__min__energy>  (17) 
-15.949999999999999

>  <m_primary>  (17) 
energy

>  <minimizedAffinity>  (17) 
-8.84954

>  <minimizedRMSD>  (17) 
0.37719

>  <CNNscore>  (17) 
0.3777090907

>  <CNNaffinity>  (17) 
6.8203525543

>  <CNN_VS>  (17) 
2.5761091709

>  <CNNaffinity_variance>  (17) 
0.0139414221

$$$$
0:0
     RDKit          3D

 31 34  0  0  0  0  0  0  0  0999 V2000
   58.2124   26.2876   44.9181 C   0  0  0  0  0  0  0  0  0  0  0  0
   58.2680   27.6084   45.1790 C   0  0  0  0  0  0  0  0  0  0  0  0
   57.6145   28.5520   44.4023 C   0  0  0  0  0  0  0  0  0  0  0  0
   57.8232   29.7765   44.9996 C   0  0  0  0  0  0  0  0  0  0  0  0
   57.2833   31.0779   44.4875 C   0  0  0  0  0  0  0  0  0  0  0  0
   58.6105   29.6400   46.0891 N   0  0  0  0  0  0  0  0  0  0  0  0
   58.9167   28.3213   46.2006 C   0  0  0  0  0  0  0  0  0  0  0  0
   59.8133   27.8483   47.0814 C   0  0  0  0  0  0  0  0  0  0  0  0
   55.3207   26.3410   46.0516 O   0  0  0  0  0  0  0  0  0  0  0  0
   56.2397   25.3081   46.2154 C   0  0  0  0  0  0  0  0  0  0  0  0
   55.9545   24.1607   46.8519 N   0  0  0  0  0  0  0  0  0  0  0  0
   57.0970   23.4529   46.7217 C   0  0  0  0  0  0  0  0  0  0  0  0
   57.2316   22.2933   47.1887 O   0  0  0  0  0  0  0  0  0  0  0  0
   58.0793   24.0837   46.0427 N   0  0  0  0  0  0  0  0  0  0  0  0
   57.5387   25.2764   45.7463 C   0  0  0  0  0  0  0  0  0  0  0  0
   59.0614   30.7127   46.9350 C   0  0  0  0  0  0  0  0  0  0  0  0
   59.5241   31.9092   46.3701 C   0  0  0  0  0  0  0  0  0  0  0  0
   59.9507   32.9570   47.1892 C   0  0  0  0  0  0  0  0  0  0  0  0
   59.9046   32.8284   48.5868 C   0  0  0  0  0  0  0  0  0  0  0  0
   59.4630   31.6212   49.1512 C   0  0  0  0  0  0  0  0  0  0  0  0
   59.0355   30.5714   48.3320 C   0  0  0  0  0  0  0  0  0  0  0  0
   58.5842   29.4242   48.8962 F   0  0  0  0  0  0  0  0  0  0  0  0
   60.3567   33.9287   49.4594 C   0  0  0  0  0  0  0  0  0  0  0  0
   59.5070   34.5488   50.1525 O   0  0  0  0  0  0  0  0  0  0  0  0
   61.7315   34.3237   49.5460 N   0  0  0  0  0  0  0  0  0  0  0  0
   63.0269   33.3005   50.0803 S   0  0  0  0  0  0  0  0  0  0  0  0
   63.9202   34.0621   51.0178 O   0  0  0  0  0  0  0  0  0  0  0  0
   62.4699   32.0940   50.7870 O   0  0  0  0  0  0  0  0  0  0  0  0
   63.9782   32.8034   48.6457 C   0  0  0  0  0  0  0  0  0  0  0  0
   63.2414   31.9140   47.6597 C   0  0  0  0  0  0  0  0  0  0  0  0
   63.4867   33.3777   47.3276 C   0  0  0  0  0  0  0  0  0  0  0  0
  9 10  1  0
 10 11  1  0
 11 12  1  0
 12 13  2  0
 12 14  1  0
 14 15  1  0
 15  1  1  0
  1  2  2  0
  2  3  1  0
  3  4  2  0
  4  5  1  0
  4  6  1  0
  6 16  1  0
 16 17  2  0
 17 18  1  0
 18 19  2  0
 19 23  1  0
 23 24  2  0
 23 25  1  0
 25 26  1  0
 26 27  2  0
 26 28  2  0
 26 29  1  0
 29 30  1  0
 30 31  1  0
 19 20  1  0
 20 21  2  0
 21 22  1  0
  6  7  1  0
  7  8  2  0
 15 10  2  0
  7  2  1  0
 21 16  1  0
 31 29  1  0
M  CHG  3  11  -1  14  -1  25  -1
M  END
>  <UniqueID>  (18) 
1

>  <SMILES>  (18) 
C=c1/c(=C\c2[n-]c(=O)[n-]c2O)cc(C)n1-c1ccc(C(=O)[N-]S(=O)(=O)C2CC2)cc1F

>  <Energy>  (18) 
394.0809019125506

>  <Genealogy>  (18) 
C=c1c(=Cc2[n-]c(=O)[n-]c2O)cc(C)n1-c1ccc(C(=O)[N-]S(=O)(=O)C2CC2)cc1F (protonated)
C=c1/c(=C\c2[n-]c(=O)[n-]c2O)cc(C)n1-c1ccc(C(=O)[N-]S(=O)(=O)C2CC2)cc1F (cis-trans isomerization)
C=c1/c(=C\c2[n-]c(=O)[n-]c2O)cc(C)n1-c1ccc(C(=O)[N-]S(=O)(=O)C2CC2)cc1F (3D coordinates assigned)
C=c1/c(=C\c2[n-]c(=O)[n-]c2O)cc(C)n1-c1ccc(C(=O)[N-]S(=O)(=O)C2CC2)cc1F (nonaromatic ring conformer: 394.0809019125506 kcal/mol)

>  <smiles>  (18) 
C=c1c(=Cc2[nH]c(=O)[nH]c2O)cc(C)n1-c1ccc(C(=O)NS(=O)(=O)C2CC2)cc1F

>  <score_type>  (18) 
oracle

>  <origin>  (18) 
adg

>  <m_score__min__energy>  (18) 
-14.26

>  <m_primary>  (18) 
energy

>  <minimizedAffinity>  (18) 
-9.02824

>  <minimizedRMSD>  (18) 
0.47806

>  <CNNscore>  (18) 
0.4597190917

>  <CNNaffinity>  (18) 
7.2489314079

>  <CNN_VS>  (18) 
3.3324720860

>  <CNNaffinity_variance>  (18) 
0.0586881153

$$$$
52:0
     RDKit          3D

 30 33  0  0  0  0  0  0  0  0999 V2000
   57.7677   33.2460   44.3601 N   0  0  0  0  0  0  0  0  0  0  0  0
   58.7277   33.5397   45.3842 C   0  0  0  0  0  0  0  0  0  0  0  0
   59.0299   34.8624   45.7531 C   0  0  0  0  0  0  0  0  0  0  0  0
   59.9831   35.1149   46.7409 C   0  0  0  0  0  0  0  0  0  0  0  0
   60.6514   34.0561   47.3593 C   0  0  0  0  0  0  0  0  0  0  0  0
   60.3706   32.7350   46.9884 C   0  0  0  0  0  0  0  0  0  0  0  0
   59.4179   32.4823   45.9906 C   0  0  0  0  0  0  0  0  0  0  0  0
   61.2411   31.4112   47.7587 S   0  0  0  0  0  0  0  0  0  0  0  0
   62.7164   31.7029   47.7595 O   0  0  0  0  0  0  0  0  0  0  0  0
   61.0014   30.1575   46.9620 O   0  0  0  0  0  0  0  0  0  0  0  0
   60.6509   31.2114   49.3947 N   0  0  0  0  0  0  0  0  0  0  0  0
   61.5174   30.3126   50.1891 C   0  0  0  0  0  0  0  0  0  0  0  0
   60.9603   28.8812   50.2853 C   0  0  0  0  0  0  0  0  0  0  0  0
   60.2577   28.5492   49.1088 O   0  0  0  0  0  0  0  0  0  0  0  0
   59.0630   29.3054   49.0221 C   0  0  0  0  0  0  0  0  0  0  0  0
   59.2394   30.7915   49.4172 C   0  0  0  0  0  0  0  0  0  0  0  0
   57.9847   32.0732   42.3707 O   0  0  0  0  0  0  0  0  0  0  0  0
   57.6966   32.0360   43.5960 C   0  0  0  0  0  0  0  0  0  0  0  0
   57.3560   30.7402   44.2126 C   0  0  0  0  0  0  0  0  0  0  0  0
   58.2348   29.7346   44.5634 C   0  0  0  0  0  0  0  0  0  0  0  0
   57.4191   28.7385   45.0605 C   0  0  0  0  0  0  0  0  0  0  0  0
   56.1354   29.1434   45.0191 N   0  0  0  0  0  0  0  0  0  0  0  0
   56.0951   30.3561   44.4877 N   0  0  0  0  0  0  0  0  0  0  0  0
   57.8589   27.4633   45.6639 C   0  0  0  0  0  0  0  0  0  0  0  0
   59.2355   27.2567   45.8608 C   0  0  0  0  0  0  0  0  0  0  0  0
   59.7077   26.0386   46.3550 C   0  0  0  0  0  0  0  0  0  0  0  0
   58.8122   25.0145   46.6641 C   0  0  0  0  0  0  0  0  0  0  0  0
   57.4410   25.2122   46.4973 C   0  0  0  0  0  0  0  0  0  0  0  0
   56.9504   26.4354   46.0225 C   0  0  0  0  0  0  0  0  0  0  0  0
   55.5659   26.6043   45.9583 O   0  0  0  0  0  0  0  0  0  0  0  0
 17 18  2  0
 18  1  1  0
  1  2  1  0
  2  3  2  0
  3  4  1  0
  4  5  2  0
  5  6  1  0
  6  8  1  0
  8  9  2  0
  8 10  2  0
  8 11  1  0
 11 12  1  0
 12 13  1  0
 13 14  1  0
 14 15  1  0
 15 16  1  0
  6  7  2  0
 18 19  1  0
 19 20  1  0
 20 21  2  0
 21 24  1  0
 24 25  2  0
 25 26  1  0
 26 27  2  0
 27 28  1  0
 28 29  2  0
 29 30  1  0
 21 22  1  0
 22 23  1  0
  7  2  1  0
 23 19  2  0
 16 11  1  0
 29 24  1  0
M  CHG  2   1  -1  22  -1
M  END
>  <UniqueID>  (19) 
48

>  <SMILES>  (19) 
O=C([N-]c1cccc(S(=O)(=O)N2CCOCC2)c1)c1cc(-c2ccccc2O)[n-]n1

>  <Energy>  (19) 
102.93073474033189

>  <Genealogy>  (19) 
O=C([N-]c1cccc(S(=O)(=O)N2CCOCC2)c1)c1cc(-c2ccccc2O)[n-]n1 (protonated)
O=C([N-]c1cccc(S(=O)(=O)N2CCOCC2)c1)c1cc(-c2ccccc2O)[n-]n1 (3D coordinates assigned)
O=C([N-]c1cccc(S(=O)(=O)N2CCOCC2)c1)c1cc(-c2ccccc2O)[n-]n1 (nonaromatic ring conformer: 102.93073474033189 kcal/mol)

>  <smiles>  (19) 
O=C(Nc1cccc(S(=O)(=O)N2CCOCC2)c1)c1cc(-c2ccccc2O)[nH]n1

>  <score_type>  (19) 
oracle

>  <origin>  (19) 
adg

>  <m_score__min__energy>  (19) 
-14.539999999999999

>  <m_primary>  (19) 
energy

>  <minimizedAffinity>  (19) 
-8.69423

>  <minimizedRMSD>  (19) 
0.42212

>  <CNNscore>  (19) 
0.7750136852

>  <CNNaffinity>  (19) 
6.9742946625

>  <CNN_VS>  (19) 
5.4051737785

>  <CNNaffinity_variance>  (19) 
0.0137284053

$$$$
56:0
     RDKit          3D

 34 37  0  0  0  0  0  0  0  0999 V2000
   58.2891   26.9884   42.9473 C   0  0  0  0  0  0  0  0  0  0  0  0
   58.5653   26.5071   44.1702 C   0  0  0  0  0  0  0  0  0  0  0  0
   57.9769   25.3915   44.7693 C   0  0  0  0  0  0  0  0  0  0  0  0
   57.0553   24.5637   44.2387 C   0  0  0  0  0  0  0  0  0  0  0  0
   58.5509   25.2734   46.0262 C   0  0  0  0  0  0  0  0  0  0  0  0
   59.4538   26.3098   46.1481 C   0  0  0  0  0  0  0  0  0  0  0  0
   60.2667   26.5806   47.3780 C   0  0  0  0  0  0  0  0  0  0  0  0
   59.4678   27.0634   45.0224 N   0  0  0  0  0  0  0  0  0  0  0  0
   55.9053   24.0316   45.0014 C   0  0  0  0  0  0  0  0  0  0  0  0
   55.1285   24.8766   45.8207 C   0  0  0  0  0  0  0  0  0  0  0  0
   55.3758   26.2466   45.9086 O   0  0  0  0  0  0  0  0  0  0  0  0
   54.1003   24.3548   46.5383 N   0  0  0  0  0  0  0  0  0  0  0  0
   53.8032   23.0318   46.4903 C   0  0  0  0  0  0  0  0  0  0  0  0
   52.8407   22.5778   47.1601 O   0  0  0  0  0  0  0  0  0  0  0  0
   54.5465   22.1968   45.7227 N   0  0  0  0  0  0  0  0  0  0  0  0
   55.5900   22.6602   44.9879 C   0  0  0  0  0  0  0  0  0  0  0  0
   56.2781   21.8471   44.3148 O   0  0  0  0  0  0  0  0  0  0  0  0
   60.3215   28.2358   44.7690 C   0  0  0  0  0  0  0  0  0  0  0  0
   59.7377   29.4710   45.4079 C   0  0  0  0  0  0  0  0  0  0  0  0
   60.1793   29.8955   46.6704 C   0  0  0  0  0  0  0  0  0  0  0  0
   59.6422   31.0429   47.2593 C   0  0  0  0  0  0  0  0  0  0  0  0
   58.6587   31.7969   46.5922 C   0  0  0  0  0  0  0  0  0  0  0  0
   58.2288   31.3764   45.3212 C   0  0  0  0  0  0  0  0  0  0  0  0
   58.7650   30.2271   44.7344 C   0  0  0  0  0  0  0  0  0  0  0  0
   58.0901   33.0149   47.2166 C   0  0  0  0  0  0  0  0  0  0  0  0
   56.8466   33.2184   47.1774 O   0  0  0  0  0  0  0  0  0  0  0  0
   58.9588   33.9852   47.8164 N   0  0  0  0  0  0  0  0  0  0  0  0
   60.3854   33.8995   47.9493 C   0  0  0  0  0  0  0  0  0  0  0  0
   61.1582   33.7374   46.7920 C   0  0  0  0  0  0  0  0  0  0  0  0
   62.5468   33.6279   46.8771 C   0  0  0  0  0  0  0  0  0  0  0  0
   63.1768   33.6545   48.1240 C   0  0  0  0  0  0  0  0  0  0  0  0
   62.4173   33.7920   49.2958 C   0  0  0  0  0  0  0  0  0  0  0  0
   63.0782   33.7881   50.6422 C   0  0  0  0  0  0  0  0  0  0  0  0
   61.0201   33.9044   49.2058 C   0  0  0  0  0  0  0  0  0  0  0  0
  1  2  2  0
  2  3  1  0
  3  4  2  0
  4  9  1  0
  9 10  2  0
 10 11  1  0
 10 12  1  0
 12 13  1  0
 13 14  2  0
 13 15  1  0
 15 16  1  0
 16 17  2  0
  3  5  1  0
  5  6  2  0
  6  7  1  0
  6  8  1  0
  8 18  1  0
 18 19  1  0
 19 20  2  0
 20 21  1  0
 21 22  2  0
 22 25  1  0
 25 26  2  0
 25 27  1  0
 27 28  1  0
 28 29  2  0
 29 30  1  0
 30 31  2  0
 31 32  1  0
 32 33  1  0
 32 34  2  0
 22 23  1  0
 23 24  2  0
  8  2  1  0
 24 19  1  0
 16  9  1  0
 34 28  1  0
M  CHG  3  12  -1  15  -1  27  -1
M  END
>  <UniqueID>  (20) 
47

>  <SMILES>  (20) 
C=c1c(=Cc2c(O)[n-]c(=O)[n-]c2=O)cc(C)n1Cc1ccc(C(=O)[N-]c2cccc(C)c2)cc1

>  <Energy>  (20) 
101.51784327335427

>  <Genealogy>  (20) 
C=c1c(=Cc2c(O)[n-]c(=O)[n-]c2=O)cc(C)n1Cc1ccc(C(=O)[N-]c2cccc(C)c2)cc1 (protonated)
C=c1c(=Cc2c(O)[n-]c(=O)[n-]c2=O)cc(C)n1Cc1ccc(C(=O)[N-]c2cccc(C)c2)cc1 (3D coordinates assigned)
C=c1c(=Cc2c(O)[n-]c(=O)[n-]c2=O)cc(C)n1Cc1ccc(C(=O)[N-]c2cccc(C)c2)cc1 (optimized conformer: 101.51784327335427 kcal/mol)

>  <smiles>  (20) 
C=c1c(=Cc2c(O)[nH]c(=O)[nH]c2=O)cc(C)n1Cc1ccc(C(=O)Nc2cccc(C)c2)cc1

>  <score_type>  (20) 
oracle

>  <origin>  (20) 
adg

>  <m_score__min__energy>  (20) 
-14.85

>  <m_primary>  (20) 
energy

>  <minimizedAffinity>  (20) 
-8.11301

>  <minimizedRMSD>  (20) 
0.43917

>  <CNNscore>  (20) 
0.2233948559

>  <CNNaffinity>  (20) 
6.7570724487

>  <CNN_VS>  (20) 
1.5094952583

>  <CNNaffinity_variance>  (20) 
0.0930179134

$$$$
7:0
     RDKit          3D

 36 39  0  0  0  0  0  0  0  0999 V2000
   55.2009   29.6050   44.7581 O   0  0  0  0  0  0  0  0  0  0  0  0
   56.4034   29.2691   44.5895 C   0  0  0  0  0  0  0  0  0  0  0  0
   57.0250   29.4557   43.2293 C   0  0  0  0  0  0  0  0  0  0  0  0
   56.9187   30.8397   42.7818 N   0  0  0  0  0  0  0  0  0  0  0  0
   57.8119   31.9055   43.1215 C   0  0  0  0  0  0  0  0  0  0  0  0
   58.2889   32.6151   42.2012 O   0  0  0  0  0  0  0  0  0  0  0  0
   58.1839   32.2106   44.5102 C   0  0  0  0  0  0  0  0  0  0  0  0
   58.8795   31.2692   45.2825 C   0  0  0  0  0  0  0  0  0  0  0  0
   59.3249   31.6020   46.5670 C   0  0  0  0  0  0  0  0  0  0  0  0
   59.1040   32.8872   47.0801 C   0  0  0  0  0  0  0  0  0  0  0  0
   58.4065   33.8265   46.3076 C   0  0  0  0  0  0  0  0  0  0  0  0
   57.9501   33.4913   45.0296 C   0  0  0  0  0  0  0  0  0  0  0  0
   59.8199   33.3603   48.6254 S   0  0  0  0  0  0  0  0  0  0  0  0
   59.2691   34.7052   49.0272 O   0  0  0  0  0  0  0  0  0  0  0  0
   59.4021   32.3564   49.6707 O   0  0  0  0  0  0  0  0  0  0  0  0
   61.5678   33.4575   48.5871 N   0  0  0  0  0  0  0  0  0  0  0  0
   62.1918   32.2852   49.1914 C   0  0  0  0  0  0  0  0  0  0  0  0
   63.6001   32.2168   48.6149 C   0  0  0  0  0  0  0  0  0  0  0  0
   63.5425   33.0338   47.3286 C   0  0  0  0  0  0  0  0  0  0  0  0
   62.0972   33.5098   47.2313 C   0  0  0  0  0  0  0  0  0  0  0  0
   57.1745   28.9027   45.7433 N   0  0  0  0  0  0  0  0  0  0  0  0
   57.8132   27.6454   46.0051 C   0  0  0  0  0  0  0  0  0  0  0  0
   59.2137   27.5084   46.0005 C   0  0  0  0  0  0  0  0  0  0  0  0
   59.8047   26.2663   46.2334 C   0  0  0  0  0  0  0  0  0  0  0  0
   59.0054   25.1410   46.4330 C   0  0  0  0  0  0  0  0  0  0  0  0
   57.6076   25.2538   46.3932 C   0  0  0  0  0  0  0  0  0  0  0  0
   57.0149   26.5073   46.1740 C   0  0  0  0  0  0  0  0  0  0  0  0
   56.6059   23.8226   46.5920 S   0  0  0  0  0  0  0  0  0  0  0  0
   55.2096   24.2490   46.9378 O   0  0  0  0  0  0  0  0  0  0  0  0
   57.1407   23.0055   47.7310 O   0  0  0  0  0  0  0  0  0  0  0  0
   56.5703   22.8444   45.1527 N   0  0  0  0  0  0  0  0  0  0  0  0
   57.9062   22.2967   44.8657 C   0  0  0  0  0  0  0  0  0  0  0  0
   57.9217   21.6098   43.4811 C   0  0  0  0  0  0  0  0  0  0  0  0
   56.6064   21.4406   42.9835 O   0  0  0  0  0  0  0  0  0  0  0  0
   56.0062   22.7087   42.7636 C   0  0  0  0  0  0  0  0  0  0  0  0
   56.0902   23.6219   44.0048 C   0  0  0  0  0  0  0  0  0  0  0  0
  1  2  2  0
  2  3  1  0
  3  4  1  0
  4  5  1  0
  5  6  2  0
  5  7  1  0
  7  8  2  0
  8  9  1  0
  9 10  2  0
 10 13  1  0
 13 14  2  0
 13 15  2  0
 13 16  1  0
 16 17  1  0
 17 18  1  0
 18 19  1  0
 19 20  1  0
 10 11  1  0
 11 12  2  0
  2 21  1  0
 21 22  1  0
 22 23  2  0
 23 24  1  0
 24 25  2  0
 25 26  1  0
 26 28  1  0
 28 29  2  0
 28 30  2  0
 28 31  1  0
 31 32  1  0
 32 33  1  0
 33 34  1  0
 34 35  1  0
 35 36  1  0
 26 27  2  0
 12  7  1  0
 27 22  1  0
 20 16  1  0
 36 31  1  0
M  CHG  2   4  -1  21  -1
M  END
>  <UniqueID>  (21) 
7

>  <SMILES>  (21) 
O=C(C[N-]C(=O)c1ccc(S(=O)(=O)N2CCCC2)cc1)[N-]c1cccc(S(=O)(=O)N2CCOCC2)c1

>  <Energy>  (21) 
79.64311835218008

>  <Genealogy>  (21) 
O=C(C[N-]C(=O)c1ccc(S(=O)(=O)N2CCCC2)cc1)[N-]c1cccc(S(=O)(=O)N2CCOCC2)c1 (protonated)
O=C(C[N-]C(=O)c1ccc(S(=O)(=O)N2CCCC2)cc1)[N-]c1cccc(S(=O)(=O)N2CCOCC2)c1 (3D coordinates assigned)
O=C(C[N-]C(=O)c1ccc(S(=O)(=O)N2CCCC2)cc1)[N-]c1cccc(S(=O)(=O)N2CCOCC2)c1 (nonaromatic ring conformer: 79.64311835218008 kcal/mol)

>  <smiles>  (21) 
O=C(CNC(=O)c1ccc(S(=O)(=O)N2CCCC2)cc1)Nc1cccc(S(=O)(=O)N2CCOCC2)c1

>  <score_type>  (21) 
oracle

>  <origin>  (21) 
adg

>  <m_score__min__energy>  (21) 
-15.24

>  <m_primary>  (21) 
energy

>  <minimizedAffinity>  (21) 
-7.13729

>  <minimizedRMSD>  (21) 
0.37207

>  <CNNscore>  (21) 
0.6725513935

>  <CNNaffinity>  (21) 
7.2479033470

>  <CNN_VS>  (21) 
4.8745875359

>  <CNNaffinity_variance>  (21) 
0.0343393721

$$$$
33:0
     RDKit          3D

 26 28  0  0  0  0  0  0  0  0999 V2000
   57.8892   29.3169   45.3360 C   0  0  0  0  0  0  0  0  0  0  0  0
   58.4786   28.0322   45.2535 C   0  0  0  0  0  0  0  0  0  0  0  0
   59.4212   27.6341   46.2039 C   0  0  0  0  0  0  0  0  0  0  0  0
   59.7431   28.4856   47.2522 C   0  0  0  0  0  0  0  0  0  0  0  0
   59.1899   29.7204   47.3160 N   0  0  0  0  0  0  0  0  0  0  0  0
   58.3101   30.1890   46.3910 C   0  0  0  0  0  0  0  0  0  0  0  0
   57.9237   31.4304   46.5256 N   0  0  0  0  0  0  0  0  0  0  0  0
   58.6784   32.6433   46.4029 C   0  0  0  0  0  0  0  0  0  0  0  0
   58.6511   33.3504   45.1942 C   0  0  0  0  0  0  0  0  0  0  0  0
   59.3404   34.5607   45.0709 C   0  0  0  0  0  0  0  0  0  0  0  0
   60.0390   35.0829   46.1632 C   0  0  0  0  0  0  0  0  0  0  0  0
   60.0371   34.4025   47.3857 C   0  0  0  0  0  0  0  0  0  0  0  0
   59.3471   33.1929   47.5122 C   0  0  0  0  0  0  0  0  0  0  0  0
   59.3224   32.5601   48.7131 F   0  0  0  0  0  0  0  0  0  0  0  0
   55.4252   29.3764   44.8169 N   0  0  0  0  0  0  0  0  0  0  0  0
   56.7711   29.6459   44.4296 C   0  0  0  0  0  0  0  0  0  0  0  0
   57.0034   30.1832   43.3131 O   0  0  0  0  0  0  0  0  0  0  0  0
   58.0323   26.8393   43.9760 S   0  0  0  0  0  0  0  0  0  0  0  0
   57.6360   25.5461   45.1574 C   0  0  0  0  0  0  0  0  0  0  0  0
   58.4167   24.4370   45.2252 N   0  0  0  0  0  0  0  0  0  0  0  0
   58.1517   23.4566   46.0901 N   0  0  0  0  0  0  0  0  0  0  0  0
   57.0863   23.5405   46.9277 C   0  0  0  0  0  0  0  0  0  0  0  0
   56.8495   22.6121   47.7428 O   0  0  0  0  0  0  0  0  0  0  0  0
   56.2761   24.6270   46.8777 N   0  0  0  0  0  0  0  0  0  0  0  0
   56.5264   25.6347   46.0040 C   0  0  0  0  0  0  0  0  0  0  0  0
   55.7518   26.6259   45.9552 O   0  0  0  0  0  0  0  0  0  0  0  0
 15 16  1  0
 16 17  2  0
 16  1  1  0
  1  2  2  0
  2 18  1  0
 18 19  1  0
 19 20  2  0
 20 21  1  0
 21 22  1  0
 22 23  2  0
 22 24  1  0
 24 25  1  0
 25 26  2  0
  2  3  1  0
  3  4  2  0
  4  5  1  0
  5  6  1  0
  6  7  2  0
  7  8  1  0
  8  9  2  0
  9 10  1  0
 10 11  2  0
 11 12  1  0
 12 13  2  0
 13 14  1  0
  6  1  1  0
 13  8  1  0
 25 19  1  0
M  CHG  4   5  -1  15  -1  21  -1  24  -1
M  END
>  <UniqueID>  (22) 
29

>  <SMILES>  (22) 
[NH-]C(=O)c1c(Sc2n[n-]c(=O)[n-]c2=O)cc[n-]/c1=N/c1ccccc1F

>  <Energy>  (22) 
59.13452405651088

>  <Genealogy>  (22) 
[NH-]C(=O)c1c(Sc2n[n-]c(=O)[n-]c2=O)cc[n-]c1=Nc1ccccc1F (protonated)
[NH-]C(=O)c1c(Sc2n[n-]c(=O)[n-]c2=O)cc[n-]/c1=N/c1ccccc1F (cis-trans isomerization)
[NH-]C(=O)c1c(Sc2n[n-]c(=O)[n-]c2=O)cc[n-]/c1=N/c1ccccc1F (3D coordinates assigned)
[NH-]C(=O)c1c(Sc2n[n-]c(=O)[n-]c2=O)cc[n-]/c1=N/c1ccccc1F (optimized conformer: 59.13452405651088 kcal/mol)

>  <smiles>  (22) 
NC(=O)c1c(Sc2n[nH]c(=O)[nH]c2=O)cc[nH]c1=Nc1ccccc1F

>  <score_type>  (22) 
oracle

>  <origin>  (22) 
adg

>  <m_score__min__energy>  (22) 
-16.460000000000001

>  <m_primary>  (22) 
energy

>  <minimizedAffinity>  (22) 
-8.50116

>  <minimizedRMSD>  (22) 
0.43735

>  <CNNscore>  (22) 
0.7581110001

>  <CNNaffinity>  (22) 
6.9485549927

>  <CNN_VS>  (22) 
5.2677760124

>  <CNNaffinity_variance>  (22) 
0.0254312456

$$$$
53:0
     RDKit          3D

 29 32  0  0  0  0  0  0  0  0999 V2000
   58.0641   26.2071   45.1486 C   0  0  0  0  0  0  0  0  0  0  0  0
   58.3058   27.4985   45.4425 C   0  0  0  0  0  0  0  0  0  0  0  0
   57.6678   28.5992   44.8874 C   0  0  0  0  0  0  0  0  0  0  0  0
   58.1962   29.7162   45.5033 C   0  0  0  0  0  0  0  0  0  0  0  0
   57.7959   31.1266   45.1932 C   0  0  0  0  0  0  0  0  0  0  0  0
   59.1357   29.3565   46.4073 N   0  0  0  0  0  0  0  0  0  0  0  0
   59.2094   28.0010   46.3839 C   0  0  0  0  0  0  0  0  0  0  0  0
   60.0643   27.2814   47.1277 C   0  0  0  0  0  0  0  0  0  0  0  0
   55.0371   26.2452   45.8988 O   0  0  0  0  0  0  0  0  0  0  0  0
   55.9813   25.3315   46.3584 C   0  0  0  0  0  0  0  0  0  0  0  0
   55.6754   24.3039   47.1675 N   0  0  0  0  0  0  0  0  0  0  0  0
   56.8540   23.6581   47.2928 C   0  0  0  0  0  0  0  0  0  0  0  0
   56.9849   22.6141   47.9829 O   0  0  0  0  0  0  0  0  0  0  0  0
   57.8802   24.2145   46.6141 N   0  0  0  0  0  0  0  0  0  0  0  0
   57.3230   25.2952   46.0373 C   0  0  0  0  0  0  0  0  0  0  0  0
   59.8910   30.2578   47.2350 C   0  0  0  0  0  0  0  0  0  0  0  0
   61.2288   30.5459   46.9307 C   0  0  0  0  0  0  0  0  0  0  0  0
   61.9641   31.4086   47.7455 C   0  0  0  0  0  0  0  0  0  0  0  0
   61.3739   31.9808   48.8760 C   0  0  0  0  0  0  0  0  0  0  0  0
   60.0397   31.6886   49.2064 C   0  0  0  0  0  0  0  0  0  0  0  0
   59.2998   30.8350   48.3675 C   0  0  0  0  0  0  0  0  0  0  0  0
   59.4146   32.2935   50.4053 C   0  0  0  0  0  0  0  0  0  0  0  0
   59.4915   33.5390   50.5844 O   0  0  0  0  0  0  0  0  0  0  0  0
   58.7020   31.4863   51.3592 N   0  0  0  0  0  0  0  0  0  0  0  0
   57.5182   32.0333   52.0238 C   0  0  0  0  0  0  0  0  0  0  0  0
   56.6081   30.8850   52.4750 C   0  0  0  0  0  0  0  0  0  0  0  0
   57.3314   29.9408   53.2442 O   0  0  0  0  0  0  0  0  0  0  0  0
   58.3213   29.3249   52.4417 C   0  0  0  0  0  0  0  0  0  0  0  0
   59.3710   30.3484   51.9973 C   0  0  0  0  0  0  0  0  0  0  0  0
  9 10  1  0
 10 11  1  0
 11 12  1  0
 12 13  2  0
 12 14  1  0
 14 15  1  0
 15  1  1  0
  1  2  2  0
  2  3  1  0
  3  4  2  0
  4  5  1  0
  4  6  1  0
  6 16  1  0
 16 17  2  0
 17 18  1  0
 18 19  2  0
 19 20  1  0
 20 22  1  0
 22 23  2  0
 22 24  1  0
 24 25  1  0
 25 26  1  0
 26 27  1  0
 27 28  1  0
 28 29  1  0
 20 21  2  0
  6  7  1  0
  7  8  2  0
 15 10  2  0
  7  2  1  0
 21 16  1  0
 29 24  1  0
M  CHG  2  11  -1  14  -1
M  END
>  <UniqueID>  (23) 
52

>  <SMILES>  (23) 
C=c1/c(=C/c2[n-]c(=O)[n-]c2O)cc(C)n1-c1cccc(C(=O)N2CCOCC2)c1

>  <Energy>  (23) 
127.23887285189144

>  <Genealogy>  (23) 
C=c1c(=Cc2[n-]c(=O)[n-]c2O)cc(C)n1-c1cccc(C(=O)N2CCOCC2)c1 (protonated)
C=c1/c(=C/c2[n-]c(=O)[n-]c2O)cc(C)n1-c1cccc(C(=O)N2CCOCC2)c1 (cis-trans isomerization)
C=c1/c(=C/c2[n-]c(=O)[n-]c2O)cc(C)n1-c1cccc(C(=O)N2CCOCC2)c1 (3D coordinates assigned)
C=c1/c(=C/c2[n-]c(=O)[n-]c2O)cc(C)n1-c1cccc(C(=O)N2CCOCC2)c1 (nonaromatic ring conformer: 127.23887285189144 kcal/mol)

>  <smiles>  (23) 
C=c1c(=Cc2[nH]c(=O)[nH]c2O)cc(C)n1-c1cccc(C(=O)N2CCOCC2)c1

>  <score_type>  (23) 
oracle

>  <origin>  (23) 
adg

>  <m_score__min__energy>  (23) 
-14.470000000000001

>  <m_primary>  (23) 
energy

>  <minimizedAffinity>  (23) 
-8.91184

>  <minimizedRMSD>  (23) 
0.45914

>  <CNNscore>  (23) 
0.3651592731

>  <CNNaffinity>  (23) 
6.5918765068

>  <CNN_VS>  (23) 
2.4070849419

>  <CNNaffinity_variance>  (23) 
0.0440612733

$$$$
20:0
     RDKit          3D

 32 35  0  0  0  0  0  0  0  0999 V2000
   58.6252   30.8283   45.3072 C   0  0  0  0  0  0  0  0  0  0  0  0
   58.1030   31.3643   44.1218 C   0  0  0  0  0  0  0  0  0  0  0  0
   58.0153   32.7479   43.9548 C   0  0  0  0  0  0  0  0  0  0  0  0
   58.4593   33.6062   44.9636 C   0  0  0  0  0  0  0  0  0  0  0  0
   59.0117   33.0850   46.1466 C   0  0  0  0  0  0  0  0  0  0  0  0
   59.0782   31.6916   46.3164 C   0  0  0  0  0  0  0  0  0  0  0  0
   59.4734   33.9988   47.2121 C   0  0  0  0  0  0  0  0  0  0  0  0
   58.8486   35.0777   47.4099 O   0  0  0  0  0  0  0  0  0  0  0  0
   60.6286   33.6933   48.0173 N   0  0  0  0  0  0  0  0  0  0  0  0
   60.6991   34.2034   49.3923 C   0  0  0  0  0  0  0  0  0  0  0  0
   61.5045   33.2441   50.2754 C   0  0  0  0  0  0  0  0  0  0  0  0
   62.7669   32.8336   49.6372 N   0  0  0  0  0  0  0  0  0  0  0  0
   63.7417   32.0743   50.3867 C   0  0  0  0  0  0  0  0  0  0  0  0
   64.8980   31.8878   49.9130 O   0  0  0  0  0  0  0  0  0  0  0  0
   63.4211   31.5069   51.7410 C   0  0  0  0  0  0  0  0  0  0  0  0
   63.0676   33.2817   48.2693 C   0  0  0  0  0  0  0  0  0  0  0  0
   61.8296   33.1347   47.3784 C   0  0  0  0  0  0  0  0  0  0  0  0
   57.8274   25.9991   44.9172 C   0  0  0  0  0  0  0  0  0  0  0  0
   58.3439   27.1851   45.2996 C   0  0  0  0  0  0  0  0  0  0  0  0
   59.4728   27.3781   46.0834 C   0  0  0  0  0  0  0  0  0  0  0  0
   59.6688   28.7424   46.1671 C   0  0  0  0  0  0  0  0  0  0  0  0
   60.7855   29.3939   46.9249 C   0  0  0  0  0  0  0  0  0  0  0  0
   58.7073   29.4009   45.4810 N   0  0  0  0  0  0  0  0  0  0  0  0
   57.8936   28.4592   44.9405 C   0  0  0  0  0  0  0  0  0  0  0  0
   56.8016   28.7396   44.2111 C   0  0  0  0  0  0  0  0  0  0  0  0
   54.9075   26.0712   45.9542 O   0  0  0  0  0  0  0  0  0  0  0  0
   55.8479   25.0941   46.2652 C   0  0  0  0  0  0  0  0  0  0  0  0
   55.5781   24.0110   47.0134 N   0  0  0  0  0  0  0  0  0  0  0  0
   56.7464   23.3333   46.9861 C   0  0  0  0  0  0  0  0  0  0  0  0
   56.9064   22.2327   47.5774 O   0  0  0  0  0  0  0  0  0  0  0  0
   57.7250   23.9200   46.2671 N   0  0  0  0  0  0  0  0  0  0  0  0
   57.1534   25.0574   45.8292 C   0  0  0  0  0  0  0  0  0  0  0  0
 26 27  1  0
 27 28  1  0
 28 29  1  0
 29 30  2  0
 29 31  1  0
 31 32  1  0
 32 18  1  0
 18 19  2  0
 19 20  1  0
 20 21  2  0
 21 22  1  0
 21 23  1  0
 23  1  1  0
  1  2  2  0
  2  3  1  0
  3  4  2  0
  4  5  1  0
  5  7  1  0
  7  8  2  0
  7  9  1  0
  9 10  1  0
 10 11  1  0
 11 12  1  0
 12 13  1  0
 13 14  2  0
 13 15  1  0
 12 16  1  0
 16 17  1  0
  5  6  2  0
 23 24  1  0
 24 25  2  0
 32 27  2  0
 24 19  1  0
  6  1  1  0
 17  9  1  0
M  CHG  2  28  -1  31  -1
M  END
>  <UniqueID>  (24) 
20

>  <SMILES>  (24) 
C=c1/c(=C/c2[n-]c(=O)[n-]c2O)cc(C)n1-c1cccc(C(=O)N2CCN(C(C)=O)CC2)c1

>  <Energy>  (24) 
130.93525530369155

>  <Genealogy>  (24) 
C=c1c(=Cc2[n-]c(=O)[n-]c2O)cc(C)n1-c1cccc(C(=O)N2CCN(C(C)=O)CC2)c1 (protonated)
C=c1/c(=C/c2[n-]c(=O)[n-]c2O)cc(C)n1-c1cccc(C(=O)N2CCN(C(C)=O)CC2)c1 (cis-trans isomerization)
C=c1/c(=C/c2[n-]c(=O)[n-]c2O)cc(C)n1-c1cccc(C(=O)N2CCN(C(C)=O)CC2)c1 (3D coordinates assigned)
C=c1/c(=C/c2[n-]c(=O)[n-]c2O)cc(C)n1-c1cccc(C(=O)N2CCN(C(C)=O)CC2)c1 (nonaromatic ring conformer: 130.93525530369155 kcal/mol)

>  <smiles>  (24) 
C=c1c(=Cc2[nH]c(=O)[nH]c2O)cc(C)n1-c1cccc(C(=O)N2CCN(C(C)=O)CC2)c1

>  <score_type>  (24) 
oracle

>  <origin>  (24) 
adg

>  <m_score__min__energy>  (24) 
-14.949999999999999

>  <m_primary>  (24) 
energy

>  <minimizedAffinity>  (24) 
-10.20070

>  <minimizedRMSD>  (24) 
0.46351

>  <CNNscore>  (24) 
0.3503894806

>  <CNNaffinity>  (24) 
6.8811492920

>  <CNN_VS>  (24) 
2.4110822678

>  <CNNaffinity_variance>  (24) 
0.0935506225

$$$$
58:0
     RDKit          3D

 29 32  0  0  0  0  0  0  0  0999 V2000
   58.1308   26.7757   45.3748 C   0  0  0  0  0  0  0  0  0  0  0  0
   58.7790   27.6641   46.1550 C   0  0  0  0  0  0  0  0  0  0  0  0
   58.4057   27.9189   47.4622 C   0  0  0  0  0  0  0  0  0  0  0  0
   59.2260   28.9245   47.9256 C   0  0  0  0  0  0  0  0  0  0  0  0
   59.1659   29.4867   49.3153 C   0  0  0  0  0  0  0  0  0  0  0  0
   60.0997   29.3068   46.9642 N   0  0  0  0  0  0  0  0  0  0  0  0
   59.8696   28.5073   45.8856 C   0  0  0  0  0  0  0  0  0  0  0  0
   60.6584   28.4898   44.7995 C   0  0  0  0  0  0  0  0  0  0  0  0
   55.2904   26.4742   46.0460 O   0  0  0  0  0  0  0  0  0  0  0  0
   56.1650   25.3912   46.1477 C   0  0  0  0  0  0  0  0  0  0  0  0
   55.6732   24.1985   46.5729 N   0  0  0  0  0  0  0  0  0  0  0  0
   56.4756   23.1153   46.7201 C   0  0  0  0  0  0  0  0  0  0  0  0
   55.9920   22.0236   47.1136 O   0  0  0  0  0  0  0  0  0  0  0  0
   57.8021   23.2095   46.4495 N   0  0  0  0  0  0  0  0  0  0  0  0
   58.3487   24.3746   46.0180 C   0  0  0  0  0  0  0  0  0  0  0  0
   59.5847   24.4254   45.7771 O   0  0  0  0  0  0  0  0  0  0  0  0
   57.5357   25.5041   45.8304 C   0  0  0  0  0  0  0  0  0  0  0  0
   61.1418   30.3409   47.1005 C   0  0  0  0  0  0  0  0  0  0  0  0
   60.5326   31.7324   47.2546 C   0  0  0  0  0  0  0  0  0  0  0  0
   61.0782   32.5933   48.2383 C   0  0  0  0  0  0  0  0  0  0  0  0
   62.1811   32.2074   48.9926 O   0  0  0  0  0  0  0  0  0  0  0  0
   60.5247   33.8486   48.4773 C   0  0  0  0  0  0  0  0  0  0  0  0
   59.4366   34.2933   47.7384 C   0  0  0  0  0  0  0  0  0  0  0  0
   58.9004   33.4977   46.7206 C   0  0  0  0  0  0  0  0  0  0  0  0
   57.8199   33.9836   45.9669 C   0  0  0  0  0  0  0  0  0  0  0  0
   57.2876   33.2230   44.9294 C   0  0  0  0  0  0  0  0  0  0  0  0
   57.8333   31.9785   44.6264 C   0  0  0  0  0  0  0  0  0  0  0  0
   58.9051   31.4769   45.3667 C   0  0  0  0  0  0  0  0  0  0  0  0
   59.4540   32.2135   46.4460 C   0  0  0  0  0  0  0  0  0  0  0  0
  9 10  1  0
 10 11  1  0
 11 12  1  0
 12 13  2  0
 12 14  1  0
 14 15  1  0
 15 16  2  0
 15 17  1  0
 17  1  1  0
  1  2  2  0
  2  3  1  0
  3  4  2  0
  4  5  1  0
  4  6  1  0
  6 18  1  0
 18 19  1  0
 19 20  2  0
 20 21  1  0
 20 22  1  0
 22 23  2  0
 23 24  1  0
 24 25  2  0
 25 26  1  0
 26 27  2  0
 27 28  1  0
 28 29  2  0
  6  7  1  0
  7  8  2  0
 17 10  2  0
  7  2  1  0
 29 19  1  0
 29 24  1  0
M  CHG  3  11  -1  14  -1  21  -1
M  END
>  <UniqueID>  (25) 
52

>  <SMILES>  (25) 
C=c1/c(=C\c2c(O)[n-]c(=O)[n-]c2=O)cc(C)n1Cc1c([O-])ccc2ccccc12

>  <Energy>  (25) 
102.51412442327616

>  <Genealogy>  (25) 
C=c1c(=Cc2c(O)[n-]c(=O)[n-]c2=O)cc(C)n1Cc1c([O-])ccc2ccccc12 (protonated)
C=c1/c(=C\c2c(O)[n-]c(=O)[n-]c2=O)cc(C)n1Cc1c([O-])ccc2ccccc12 (cis-trans isomerization)
C=c1/c(=C\c2c(O)[n-]c(=O)[n-]c2=O)cc(C)n1Cc1c([O-])ccc2ccccc12 (3D coordinates assigned)
C=c1/c(=C\c2c(O)[n-]c(=O)[n-]c2=O)cc(C)n1Cc1c([O-])ccc2ccccc12 (optimized conformer: 102.51412442327616 kcal/mol)

>  <smiles>  (25) 
C=c1c(=Cc2c(O)[nH]c(=O)[nH]c2=O)cc(C)n1Cc1c(O)ccc2ccccc12

>  <score_type>  (25) 
oracle

>  <origin>  (25) 
adg

>  <m_score__min__energy>  (25) 
-14.640000000000001

>  <m_primary>  (25) 
energy

>  <minimizedAffinity>  (25) 
-9.76231

>  <minimizedRMSD>  (25) 
0.28933

>  <CNNscore>  (25) 
0.5792960525

>  <CNNaffinity>  (25) 
6.9546504021

>  <CNN_VS>  (25) 
4.0288014412

>  <CNNaffinity_variance>  (25) 
0.0054772436

$$$$
21:0
     RDKit          3D

 31 34  0  0  0  0  0  0  0  0999 V2000
   59.3591   25.8812   47.1335 C   0  0  0  0  0  0  0  0  0  0  0  0
   59.7807   27.0346   47.6866 C   0  0  0  0  0  0  0  0  0  0  0  0
   60.2279   27.2072   48.9914 C   0  0  0  0  0  0  0  0  0  0  0  0
   60.6002   28.5312   49.1113 C   0  0  0  0  0  0  0  0  0  0  0  0
   61.1787   29.1445   50.3497 C   0  0  0  0  0  0  0  0  0  0  0  0
   60.4202   29.1796   47.9381 N   0  0  0  0  0  0  0  0  0  0  0  0
   59.9235   28.2766   47.0566 C   0  0  0  0  0  0  0  0  0  0  0  0
   59.6468   28.5545   45.7729 C   0  0  0  0  0  0  0  0  0  0  0  0
   57.6681   23.6619   48.4809 O   0  0  0  0  0  0  0  0  0  0  0  0
   57.2010   24.5628   47.5290 C   0  0  0  0  0  0  0  0  0  0  0  0
   55.9221   24.6183   47.1197 N   0  0  0  0  0  0  0  0  0  0  0  0
   55.9300   25.6640   46.2670 C   0  0  0  0  0  0  0  0  0  0  0  0
   54.8963   26.0525   45.6623 O   0  0  0  0  0  0  0  0  0  0  0  0
   57.1291   26.2667   46.1190 N   0  0  0  0  0  0  0  0  0  0  0  0
   57.9422   25.5442   46.9092 C   0  0  0  0  0  0  0  0  0  0  0  0
   60.7184   30.5645   47.6891 C   0  0  0  0  0  0  0  0  0  0  0  0
   62.0455   31.0114   47.6856 C   0  0  0  0  0  0  0  0  0  0  0  0
   62.3325   32.3553   47.4371 C   0  0  0  0  0  0  0  0  0  0  0  0
   61.2965   33.2611   47.1961 C   0  0  0  0  0  0  0  0  0  0  0  0
   59.9584   32.8311   47.2058 C   0  0  0  0  0  0  0  0  0  0  0  0
   59.6794   31.4725   47.4382 C   0  0  0  0  0  0  0  0  0  0  0  0
   58.8595   33.8002   46.9635 C   0  0  0  0  0  0  0  0  0  0  0  0
   58.9979   35.0002   47.3257 O   0  0  0  0  0  0  0  0  0  0  0  0
   57.6665   33.4317   46.2551 N   0  0  0  0  0  0  0  0  0  0  0  0
   57.5833   32.6972   45.1798 C   0  0  0  0  0  0  0  0  0  0  0  0
   56.9848   31.4785   45.2722 N   0  0  0  0  0  0  0  0  0  0  0  0
   56.8557   30.6434   44.2048 C   0  0  0  0  0  0  0  0  0  0  0  0
   56.1777   29.3208   44.3699 C   0  0  0  0  0  0  0  0  0  0  0  0
   57.3501   31.0334   42.9556 C   0  0  0  0  0  0  0  0  0  0  0  0
   57.9831   32.2685   42.8268 C   0  0  0  0  0  0  0  0  0  0  0  0
   58.1119   33.1063   43.9367 C   0  0  0  0  0  0  0  0  0  0  0  0
  9 10  1  0
 10 11  1  0
 11 12  1  0
 12 13  2  0
 12 14  1  0
 14 15  1  0
 15  1  1  0
  1  2  2  0
  2  3  1  0
  3  4  2  0
  4  5  1  0
  4  6  1  0
  6 16  1  0
 16 17  2  0
 17 18  1  0
 18 19  2  0
 19 20  1  0
 20 22  1  0
 22 23  2  0
 22 24  1  0
 24 25  2  0
 25 26  1  0
 26 27  1  0
 27 28  1  0
 27 29  2  0
 29 30  1  0
 30 31  2  0
 20 21  2  0
  6  7  1  0
  7  8  2  0
 15 10  2  0
  7  2  1  0
 21 16  1  0
 31 25  1  0
M  CHG  3  11  -1  14  -1  26  -1
M  END
>  <UniqueID>  (26) 
22

>  <SMILES>  (26) 
C=c1/c(=C/c2[n-]c(=O)[n-]c2O)cc(C)n1-c1cccc(C(=O)N=c2cccc(C)[n-]2)c1

>  <Energy>  (26) 
132.57205031992126

>  <Genealogy>  (26) 
C=c1c(=Cc2[n-]c(=O)[n-]c2O)cc(C)n1-c1cccc(C(=O)N=c2cccc(C)[n-]2)c1 (protonated)
C=c1/c(=C/c2[n-]c(=O)[n-]c2O)cc(C)n1-c1cccc(C(=O)N=c2cccc(C)[n-]2)c1 (cis-trans isomerization)
C=c1/c(=C/c2[n-]c(=O)[n-]c2O)cc(C)n1-c1cccc(C(=O)N=c2cccc(C)[n-]2)c1 (3D coordinates assigned)
C=c1/c(=C/c2[n-]c(=O)[n-]c2O)cc(C)n1-c1cccc(C(=O)N=c2cccc(C)[n-]2)c1 (optimized conformer: 132.57205031992126 kcal/mol)

>  <smiles>  (26) 
C=c1c(=Cc2[nH]c(=O)[nH]c2O)cc(C)n1-c1cccc(C(=O)N=c2cccc(C)[nH]2)c1

>  <score_type>  (26) 
oracle

>  <origin>  (26) 
adg

>  <m_score__min__energy>  (26) 
-15.33

>  <m_primary>  (26) 
energy

>  <minimizedAffinity>  (26) 
-8.31881

>  <minimizedRMSD>  (26) 
0.30873

>  <CNNscore>  (26) 
0.4714920223

>  <CNNaffinity>  (26) 
6.9877266884

>  <CNN_VS>  (26) 
3.2946574688

>  <CNNaffinity_variance>  (26) 
0.0549061336

$$$$
47:0
     RDKit          3D

 28 30  0  0  0  0  0  0  0  0999 V2000
   57.6094   26.4008   45.9190 C   0  0  0  0  0  0  0  0  0  0  0  0
   56.2911   26.0356   46.2265 C   0  0  0  0  0  0  0  0  0  0  0  0
   55.2229   26.7569   45.7016 O   0  0  0  0  0  0  0  0  0  0  0  0
   56.0559   24.9764   47.0479 N   0  0  0  0  0  0  0  0  0  0  0  0
   57.0780   24.2600   47.5832 C   0  0  0  0  0  0  0  0  0  0  0  0
   56.8101   23.2514   48.3560 N   0  0  0  0  0  0  0  0  0  0  0  0
   58.3658   24.6035   47.2979 N   0  0  0  0  0  0  0  0  0  0  0  0
   58.6499   25.6504   46.4812 C   0  0  0  0  0  0  0  0  0  0  0  0
   59.8523   25.9324   46.2302 O   0  0  0  0  0  0  0  0  0  0  0  0
   58.5119   27.2317   43.7453 C   0  0  0  0  0  0  0  0  0  0  0  0
   57.8799   27.5068   45.0420 N   0  0  0  0  0  0  0  0  0  0  0  0
   57.5128   28.8431   45.4447 C   0  0  0  0  0  0  0  0  0  0  0  0
   56.3149   29.2212   45.3314 O   0  0  0  0  0  0  0  0  0  0  0  0
   58.5022   29.7945   45.9921 C   0  0  0  0  0  0  0  0  0  0  0  0
   59.6713   29.3343   46.6212 C   0  0  0  0  0  0  0  0  0  0  0  0
   60.6072   30.2470   47.1220 C   0  0  0  0  0  0  0  0  0  0  0  0
   60.3852   31.6233   46.9943 C   0  0  0  0  0  0  0  0  0  0  0  0
   59.2301   32.0894   46.3579 C   0  0  0  0  0  0  0  0  0  0  0  0
   59.0117   33.4584   46.2297 O   0  0  0  0  0  0  0  0  0  0  0  0
   58.2949   31.1804   45.8511 C   0  0  0  0  0  0  0  0  0  0  0  0
   56.7694   21.8606   47.9080 C   0  0  0  0  0  0  0  0  0  0  0  0
   55.5555   21.6332   47.0027 C   0  0  0  0  0  0  0  0  0  0  0  0
   55.8814   21.9435   45.5640 C   0  0  0  0  0  0  0  0  0  0  0  0
   55.1939   22.9659   44.8887 C   0  0  0  0  0  0  0  0  0  0  0  0
   55.4706   23.2306   43.5440 C   0  0  0  0  0  0  0  0  0  0  0  0
   56.4261   22.4725   42.8621 C   0  0  0  0  0  0  0  0  0  0  0  0
   57.1067   21.4466   43.5240 C   0  0  0  0  0  0  0  0  0  0  0  0
   56.8350   21.1798   44.8694 C   0  0  0  0  0  0  0  0  0  0  0  0
 10 11  1  0
 11 12  1  0
 12 13  2  0
 12 14  1  0
 14 15  2  0
 15 16  1  0
 16 17  2  0
 17 18  1  0
 18 19  1  0
 18 20  2  0
 11  1  1  0
  1  2  2  0
  2  3  1  0
  2  4  1  0
  4  5  1  0
  5  6  2  0
  6 21  1  0
 21 22  1  0
 22 23  1  0
 23 24  2  0
 24 25  1  0
 25 26  2  0
 26 27  1  0
 27 28  2  0
  5  7  1  0
  7  8  1  0
  8  9  2  0
 20 14  1  0
  8  1  1  0
 28 23  1  0
M  CHG  3   4  -1   7  -1  19  -1
M  END
>  <UniqueID>  (27) 
44

>  <SMILES>  (27) 
CN(C(=O)c1cccc([O-])c1)c1c(O)[n-]c(=NCCc2ccccc2)[n-]c1=O

>  <Energy>  (27) 
57.39206287745948

>  <Genealogy>  (27) 
CN(C(=O)c1cccc([O-])c1)c1c(O)[n-]c(=NCCc2ccccc2)[n-]c1=O (protonated)
CN(C(=O)c1cccc([O-])c1)c1c(O)[n-]c(=NCCc2ccccc2)[n-]c1=O (3D coordinates assigned)
CN(C(=O)c1cccc([O-])c1)c1c(O)[n-]c(=NCCc2ccccc2)[n-]c1=O (optimized conformer: 57.39206287745948 kcal/mol)

>  <smiles>  (27) 
CN(C(=O)c1cccc(O)c1)c1c(O)[nH]c(=NCCc2ccccc2)[nH]c1=O

>  <score_type>  (27) 
oracle

>  <origin>  (27) 
adg

>  <m_score__min__energy>  (27) 
-14.15

>  <m_primary>  (27) 
energy

>  <minimizedAffinity>  (27) 
-6.65922

>  <minimizedRMSD>  (27) 
0.40273

>  <CNNscore>  (27) 
0.3096395731

>  <CNNaffinity>  (27) 
5.9427528381

>  <CNN_VS>  (27) 
1.8401114941

>  <CNNaffinity_variance>  (27) 
0.0198204219

$$$$
65:0
     RDKit          3D

 32 35  0  0  0  0  0  0  0  0999 V2000
   60.6595   30.4508   47.2399 C   0  0  0  0  0  0  0  0  0  0  0  0
   62.0474   30.3386   47.3720 C   0  0  0  0  0  0  0  0  0  0  0  0
   62.8322   31.4776   47.5581 C   0  0  0  0  0  0  0  0  0  0  0  0
   62.2378   32.7485   47.6118 C   0  0  0  0  0  0  0  0  0  0  0  0
   60.8430   32.8597   47.4692 C   0  0  0  0  0  0  0  0  0  0  0  0
   60.0457   31.7129   47.2832 C   0  0  0  0  0  0  0  0  0  0  0  0
   60.0340   29.0455   44.7187 C   0  0  0  0  0  0  0  0  0  0  0  0
   59.6326   28.5961   45.9175 C   0  0  0  0  0  0  0  0  0  0  0  0
   58.8002   27.4953   46.1814 C   0  0  0  0  0  0  0  0  0  0  0  0
   58.3678   26.5025   45.3806 C   0  0  0  0  0  0  0  0  0  0  0  0
   58.4767   27.5683   47.5277 C   0  0  0  0  0  0  0  0  0  0  0  0
   59.1487   28.6577   48.0429 C   0  0  0  0  0  0  0  0  0  0  0  0
   59.1845   29.0269   49.4952 C   0  0  0  0  0  0  0  0  0  0  0  0
   59.8644   29.2663   47.0734 N   0  0  0  0  0  0  0  0  0  0  0  0
   57.6059   25.3201   45.8154 C   0  0  0  0  0  0  0  0  0  0  0  0
   58.1479   24.1219   46.1004 N   0  0  0  0  0  0  0  0  0  0  0  0
   57.1036   23.4146   46.5829 C   0  0  0  0  0  0  0  0  0  0  0  0
   57.2092   22.2161   46.9526 O   0  0  0  0  0  0  0  0  0  0  0  0
   55.9400   24.0968   46.6511 N   0  0  0  0  0  0  0  0  0  0  0  0
   56.2815   25.3057   46.1749 C   0  0  0  0  0  0  0  0  0  0  0  0
   55.3994   26.3747   46.0768 O   0  0  0  0  0  0  0  0  0  0  0  0
   63.0738   33.9530   47.8124 C   0  0  0  0  0  0  0  0  0  0  0  0
   63.2318   34.4401   48.9646 O   0  0  0  0  0  0  0  0  0  0  0  0
   63.6979   34.5651   46.7313 O   0  0  0  0  0  0  0  0  0  0  0  0
   58.6505   31.7805   47.1260 O   0  0  0  0  0  0  0  0  0  0  0  0
   57.9560   32.6554   46.2376 C   0  0  0  0  0  0  0  0  0  0  0  0
   57.6021   31.9372   44.9625 C   0  0  0  0  0  0  0  0  0  0  0  0
   56.8741   30.7383   45.0150 C   0  0  0  0  0  0  0  0  0  0  0  0
   56.5279   30.0715   43.8363 C   0  0  0  0  0  0  0  0  0  0  0  0
   56.9136   30.5934   42.5975 C   0  0  0  0  0  0  0  0  0  0  0  0
   57.6473   31.7809   42.5385 C   0  0  0  0  0  0  0  0  0  0  0  0
   57.9937   32.4519   43.7156 C   0  0  0  0  0  0  0  0  0  0  0  0
  7  8  2  0
  8  9  1  0
  9 10  2  0
 10 15  1  0
 15 16  1  0
 16 17  1  0
 17 18  2  0
 17 19  1  0
 19 20  1  0
 20 21  1  0
  9 11  1  0
 11 12  2  0
 12 13  1  0
 12 14  1  0
 14  1  1  0
  1  2  2  0
  2  3  1  0
  3  4  2  0
  4 22  1  0
 22 23  2  0
 22 24  1  0
  4  5  1  0
  5  6  2  0
  6 25  1  0
 25 26  1  0
 26 27  1  0
 27 28  2  0
 28 29  1  0
 29 30  2  0
 30 31  1  0
 31 32  2  0
 14  8  1  0
  6  1  1  0
 32 27  1  0
 20 15  2  0
M  CHG  4  16  -1  19  -1  21  -1  24  -1
M  END
>  <UniqueID>  (28) 
64

>  <SMILES>  (28) 
C=c1c(=Cc2[n-]c(=O)[n-]c2[O-])cc(C)n1-c1ccc(C(=O)[O-])cc1OCc1ccccc1

>  <Energy>  (28) 
127.82875755229605

>  <Genealogy>  (28) 
C=c1c(=Cc2[n-]c(=O)[n-]c2[O-])cc(C)n1-c1ccc(C(=O)[O-])cc1OCc1ccccc1 (protonated)
C=c1c(=Cc2[n-]c(=O)[n-]c2[O-])cc(C)n1-c1ccc(C(=O)[O-])cc1OCc1ccccc1 (3D coordinates assigned)
C=c1c(=Cc2[n-]c(=O)[n-]c2[O-])cc(C)n1-c1ccc(C(=O)[O-])cc1OCc1ccccc1 (optimized conformer: 127.82875755229605 kcal/mol)

>  <smiles>  (28) 
C=c1c(=Cc2[nH]c(=O)[nH]c2O)cc(C)n1-c1ccc(C(=O)O)cc1OCc1ccccc1

>  <score_type>  (28) 
oracle

>  <origin>  (28) 
adg

>  <m_score__min__energy>  (28) 
-17.010000000000002

>  <m_primary>  (28) 
energy

>  <minimizedAffinity>  (28) 
-6.19061

>  <minimizedRMSD>  (28) 
0.46364

>  <CNNscore>  (28) 
0.1013738737

>  <CNNaffinity>  (28) 
6.2400779724

>  <CNN_VS>  (28) 
0.6325808764

>  <CNNaffinity_variance>  (28) 
0.1942532063

$$$$
29:0
     RDKit          3D

 28 31  0  0  0  0  0  0  0  0999 V2000
   57.9500   26.5188   44.7610 C   0  0  0  0  0  0  0  0  0  0  0  0
   58.4667   27.6747   45.2198 C   0  0  0  0  0  0  0  0  0  0  0  0
   59.6781   27.8317   45.8815 C   0  0  0  0  0  0  0  0  0  0  0  0
   59.8257   29.1841   46.1223 C   0  0  0  0  0  0  0  0  0  0  0  0
   61.0003   29.8017   46.8161 C   0  0  0  0  0  0  0  0  0  0  0  0
   58.7598   29.8664   45.6467 N   0  0  0  0  0  0  0  0  0  0  0  0
   57.9230   28.9571   45.0871 C   0  0  0  0  0  0  0  0  0  0  0  0
   56.7380   29.2662   44.5378 C   0  0  0  0  0  0  0  0  0  0  0  0
   55.1580   26.4015   46.0971 O   0  0  0  0  0  0  0  0  0  0  0  0
   56.1392   25.4208   46.1992 C   0  0  0  0  0  0  0  0  0  0  0  0
   55.9665   24.2580   46.8502 N   0  0  0  0  0  0  0  0  0  0  0  0
   57.1328   23.6164   46.6260 C   0  0  0  0  0  0  0  0  0  0  0  0
   57.3718   22.4650   47.0747 O   0  0  0  0  0  0  0  0  0  0  0  0
   58.0222   24.3023   45.8748 N   0  0  0  0  0  0  0  0  0  0  0  0
   57.3913   25.4649   45.6264 C   0  0  0  0  0  0  0  0  0  0  0  0
   58.5804   31.2921   45.7156 C   0  0  0  0  0  0  0  0  0  0  0  0
   57.8536   31.9606   44.7202 C   0  0  0  0  0  0  0  0  0  0  0  0
   57.6797   33.3464   44.7876 C   0  0  0  0  0  0  0  0  0  0  0  0
   58.2348   34.0722   45.8436 C   0  0  0  0  0  0  0  0  0  0  0  0
   58.9785   33.4169   46.8381 C   0  0  0  0  0  0  0  0  0  0  0  0
   59.1396   32.0239   46.7726 C   0  0  0  0  0  0  0  0  0  0  0  0
   59.5430   34.1910   47.9986 C   0  0  0  0  0  0  0  0  0  0  0  0
   61.0056   33.8878   48.1619 C   0  0  0  0  0  0  0  0  0  0  0  0
   61.5782   33.7919   49.4399 C   0  0  0  0  0  0  0  0  0  0  0  0
   62.8945   33.4813   49.5790 N   0  0  0  0  0  0  0  0  0  0  0  0
   63.6913   33.2485   48.5024 C   0  0  0  0  0  0  0  0  0  0  0  0
   63.1623   33.3206   47.2126 C   0  0  0  0  0  0  0  0  0  0  0  0
   61.8129   33.6375   47.0431 C   0  0  0  0  0  0  0  0  0  0  0  0
  9 10  1  0
 10 11  1  0
 11 12  1  0
 12 13  2  0
 12 14  1  0
 14 15  1  0
 15  1  1  0
  1  2  2  0
  2  3  1  0
  3  4  2  0
  4  5  1  0
  4  6  1  0
  6 16  1  0
 16 17  2  0
 17 18  1  0
 18 19  2  0
 19 20  1  0
 20 22  1  0
 22 23  1  0
 23 24  2  0
 24 25  1  0
 25 26  2  0
 26 27  1  0
 27 28  2  0
 20 21  2  0
  6  7  1  0
  7  8  2  0
 15 10  2  0
  7  2  1  0
 21 16  1  0
 28 23  1  0
M  CHG  2  11  -1  14  -1
M  END
>  <UniqueID>  (29) 
28

>  <SMILES>  (29) 
C=c1/c(=C/c2[n-]c(=O)[n-]c2O)cc(C)n1-c1cccc(Cc2cccnc2)c1

>  <Energy>  (29) 
119.41779197187823

>  <Genealogy>  (29) 
C=c1c(=Cc2[n-]c(=O)[n-]c2O)cc(C)n1-c1cccc(Cc2cccnc2)c1 (protonated)
C=c1/c(=C/c2[n-]c(=O)[n-]c2O)cc(C)n1-c1cccc(Cc2cccnc2)c1 (cis-trans isomerization)
C=c1/c(=C/c2[n-]c(=O)[n-]c2O)cc(C)n1-c1cccc(Cc2cccnc2)c1 (3D coordinates assigned)
C=c1/c(=C/c2[n-]c(=O)[n-]c2O)cc(C)n1-c1cccc(Cc2cccnc2)c1 (optimized conformer: 119.41779197187823 kcal/mol)

>  <smiles>  (29) 
C=c1c(=Cc2[nH]c(=O)[nH]c2O)cc(C)n1-c1cccc(Cc2cccnc2)c1

>  <score_type>  (29) 
oracle

>  <origin>  (29) 
adg

>  <m_score__min__energy>  (29) 
-14.619999999999999

>  <m_primary>  (29) 
energy

>  <minimizedAffinity>  (29) 
-10.52748

>  <minimizedRMSD>  (29) 
0.46491

>  <CNNscore>  (29) 
0.9031029940

>  <CNNaffinity>  (29) 
7.7047429085

>  <CNN_VS>  (29) 
6.9581766129

>  <CNNaffinity_variance>  (29) 
0.0222842824

$$$$
10:0
     RDKit          3D

 29 31  0  0  0  0  0  0  0  0999 V2000
   58.8676   27.7795   48.2797 C   0  0  0  0  0  0  0  0  0  0  0  0
   58.7659   27.5145   46.9558 C   0  0  0  0  0  0  0  0  0  0  0  0
   59.3689   28.4125   46.0240 C   0  0  0  0  0  0  0  0  0  0  0  0
   59.1774   28.2366   44.6503 C   0  0  0  0  0  0  0  0  0  0  0  0
   58.4066   27.1894   44.1694 C   0  0  0  0  0  0  0  0  0  0  0  0
   58.1812   26.9928   42.4407 Cl  0  0  0  0  0  0  0  0  0  0  0  0
   57.8390   26.2762   45.0527 C   0  0  0  0  0  0  0  0  0  0  0  0
   58.0127   26.3943   46.4528 C   0  0  0  0  0  0  0  0  0  0  0  0
   57.5111   25.4239   47.2680 C   0  0  0  0  0  0  0  0  0  0  0  0
   56.4642   24.4488   46.8798 C   0  0  0  0  0  0  0  0  0  0  0  0
   55.2705   24.8922   46.2899 C   0  0  0  0  0  0  0  0  0  0  0  0
   55.0356   26.2501   46.1031 O   0  0  0  0  0  0  0  0  0  0  0  0
   54.3296   23.9933   45.9043 N   0  0  0  0  0  0  0  0  0  0  0  0
   54.5266   22.6584   46.0651 C   0  0  0  0  0  0  0  0  0  0  0  0
   53.6378   21.8448   45.7041 O   0  0  0  0  0  0  0  0  0  0  0  0
   55.6832   22.2030   46.6091 N   0  0  0  0  0  0  0  0  0  0  0  0
   56.6550   23.0613   47.0102 C   0  0  0  0  0  0  0  0  0  0  0  0
   57.7274   22.6015   47.4872 O   0  0  0  0  0  0  0  0  0  0  0  0
   60.2189   29.5516   46.4431 C   0  0  0  0  0  0  0  0  0  0  0  0
   61.4520   29.5242   46.1956 O   0  0  0  0  0  0  0  0  0  0  0  0
   59.6700   30.6807   47.1306 N   0  0  0  0  0  0  0  0  0  0  0  0
   59.6938   32.0416   46.6061 C   0  0  0  0  0  0  0  0  0  0  0  0
   58.2680   32.5117   46.3340 C   0  0  0  0  0  0  0  0  0  0  0  0
   57.7171   31.8419   45.1076 C   0  0  0  0  0  0  0  0  0  0  0  0
   56.8559   30.7961   45.2420 N   0  0  0  0  0  0  0  0  0  0  0  0
   56.3558   30.1363   44.1619 C   0  0  0  0  0  0  0  0  0  0  0  0
   56.7302   30.5194   42.8733 C   0  0  0  0  0  0  0  0  0  0  0  0
   57.6215   31.5803   42.7080 C   0  0  0  0  0  0  0  0  0  0  0  0
   58.1248   32.2471   43.8274 C   0  0  0  0  0  0  0  0  0  0  0  0
  1  2  2  0
  2  3  1  0
  3 19  1  0
 19 20  2  0
 19 21  1  0
 21 22  1  0
 22 23  1  0
 23 24  1  0
 24 25  2  0
 25 26  1  0
 26 27  2  0
 27 28  1  0
 28 29  2  0
  3  4  2  0
  4  5  1  0
  5  6  1  0
  5  7  2  0
  7  8  1  0
  8  9  2  0
  9 10  1  0
 10 11  2  0
 11 12  1  0
 11 13  1  0
 13 14  1  0
 14 15  2  0
 14 16  1  0
 16 17  1  0
 17 18  2  0
  8  2  1  0
 17 10  1  0
 29 24  1  0
M  CHG  4  12  -1  13  -1  16  -1  21  -1
M  END
>  <UniqueID>  (30) 
10

>  <SMILES>  (30) 
C=c1c(C(=O)[N-]CCc2ccccn2)cc(Cl)c/c1=C\c1c([O-])[n-]c(=O)[n-]c1=O

>  <Energy>  (30) 
70.644230246607

>  <Genealogy>  (30) 
C=c1c(C(=O)[N-]CCc2ccccn2)cc(Cl)cc1=Cc1c([O-])[n-]c(=O)[n-]c1=O (protonated)
C=c1c(C(=O)[N-]CCc2ccccn2)cc(Cl)c/c1=C\c1c([O-])[n-]c(=O)[n-]c1=O (cis-trans isomerization)
C=c1c(C(=O)[N-]CCc2ccccn2)cc(Cl)c/c1=C\c1c([O-])[n-]c(=O)[n-]c1=O (3D coordinates assigned)
C=c1c(C(=O)[N-]CCc2ccccn2)cc(Cl)c/c1=C\c1c([O-])[n-]c(=O)[n-]c1=O (optimized conformer: 70.644230246607 kcal/mol)

>  <smiles>  (30) 
C=c1c(C(=O)NCCc2ccccn2)cc(Cl)cc1=Cc1c(O)[nH]c(=O)[nH]c1=O

>  <score_type>  (30) 
oracle

>  <origin>  (30) 
adg

>  <m_score__min__energy>  (30) 
-17.27

>  <m_primary>  (30) 
energy

>  <minimizedAffinity>  (30) 
-5.83984

>  <minimizedRMSD>  (30) 
0.46390

>  <CNNscore>  (30) 
0.0973280668

>  <CNNaffinity>  (30) 
5.8762774467

>  <CNN_VS>  (30) 
0.5719267130

>  <CNNaffinity_variance>  (30) 
0.1499051899

$$$$
41:0
     RDKit          3D

 24 26  0  0  0  0  0  0  0  0999 V2000
   58.2791   26.6307   42.9445 C   0  0  0  0  0  0  0  0  0  0  0  0
   58.2673   26.3990   44.2659 C   0  0  0  0  0  0  0  0  0  0  0  0
   57.7121   25.3045   44.9410 C   0  0  0  0  0  0  0  0  0  0  0  0
   56.8941   24.3194   44.5136 C   0  0  0  0  0  0  0  0  0  0  0  0
   58.1757   25.4432   46.2448 C   0  0  0  0  0  0  0  0  0  0  0  0
   57.8713   24.5492   47.4067 C   0  0  0  0  0  0  0  0  0  0  0  0
   58.8961   26.5736   46.3588 N   0  0  0  0  0  0  0  0  0  0  0  0
   58.9476   27.1490   45.1691 N   0  0  0  0  0  0  0  0  0  0  0  0
   55.6141   23.9444   45.1346 C   0  0  0  0  0  0  0  0  0  0  0  0
   55.0251   22.7402   45.0112 N   0  0  0  0  0  0  0  0  0  0  0  0
   53.8298   22.9139   45.6165 C   0  0  0  0  0  0  0  0  0  0  0  0
   52.9834   21.9898   45.7225 O   0  0  0  0  0  0  0  0  0  0  0  0
   53.6114   24.1598   46.0900 N   0  0  0  0  0  0  0  0  0  0  0  0
   54.7439   24.8012   45.7623 C   0  0  0  0  0  0  0  0  0  0  0  0
   54.9749   26.1449   46.0273 O   0  0  0  0  0  0  0  0  0  0  0  0
   59.6617   28.4088   44.9380 C   0  0  0  0  0  0  0  0  0  0  0  0
   58.7050   29.5742   44.9873 C   0  0  0  0  0  0  0  0  0  0  0  0
   57.5100   29.5209   44.2493 C   0  0  0  0  0  0  0  0  0  0  0  0
   56.6122   30.5895   44.2792 C   0  0  0  0  0  0  0  0  0  0  0  0
   56.8929   31.7194   45.0505 C   0  0  0  0  0  0  0  0  0  0  0  0
   58.0725   31.7827   45.7990 C   0  0  0  0  0  0  0  0  0  0  0  0
   58.4097   33.2055   46.7685 Cl  0  0  0  0  0  0  0  0  0  0  0  0
   58.9786   30.7115   45.7728 C   0  0  0  0  0  0  0  0  0  0  0  0
   60.1145   30.7826   46.5133 F   0  0  0  0  0  0  0  0  0  0  0  0
  1  2  2  0
  2  3  1  0
  3  4  2  0
  4  9  1  0
  9 10  1  0
 10 11  1  0
 11 12  2  0
 11 13  1  0
 13 14  1  0
 14 15  1  0
  3  5  1  0
  5  6  1  0
  5  7  2  0
  7  8  1  0
  8 16  1  0
 16 17  1  0
 17 18  2  0
 18 19  1  0
 19 20  2  0
 20 21  1  0
 21 22  1  0
 21 23  2  0
 23 24  1  0
  8  2  1  0
 23 17  1  0
 14  9  2  0
M  CHG  3  10  -1  13  -1  15  -1
M  END
>  <UniqueID>  (31) 
39

>  <SMILES>  (31) 
C=c1/c(=C\c2[n-]c(=O)[n-]c2[O-])c(C)nn1Cc1cccc(Cl)c1F

>  <Energy>  (31) 
109.23562069053668

>  <Genealogy>  (31) 
C=c1c(=Cc2[n-]c(=O)[n-]c2[O-])c(C)nn1Cc1cccc(Cl)c1F (protonated)
C=c1/c(=C\c2[n-]c(=O)[n-]c2[O-])c(C)nn1Cc1cccc(Cl)c1F (cis-trans isomerization)
C=c1/c(=C\c2[n-]c(=O)[n-]c2[O-])c(C)nn1Cc1cccc(Cl)c1F (3D coordinates assigned)
C=c1/c(=C\c2[n-]c(=O)[n-]c2[O-])c(C)nn1Cc1cccc(Cl)c1F (optimized conformer: 109.23562069053668 kcal/mol)

>  <smiles>  (31) 
C=c1c(=Cc2[nH]c(=O)[nH]c2O)c(C)nn1Cc1cccc(Cl)c1F

>  <score_type>  (31) 
oracle

>  <origin>  (31) 
adg

>  <m_score__min__energy>  (31) 
-15.859999999999999

>  <m_primary>  (31) 
energy

>  <minimizedAffinity>  (31) 
-5.56804

>  <minimizedRMSD>  (31) 
0.45226

>  <CNNscore>  (31) 
0.0831199661

>  <CNNaffinity>  (31) 
5.4964079857

>  <CNN_VS>  (31) 
0.4568612576

>  <CNNaffinity_variance>  (31) 
0.1065735593

$$$$
50:0
     RDKit          3D

 33 36  0  0  0  0  0  0  0  0999 V2000
   60.5288   28.5528   50.0783 N   0  0  0  0  0  0  0  0  0  0  0  0
   59.9046   29.8421   50.1571 C   0  0  0  0  0  0  0  0  0  0  0  0
   60.3186   30.8404   49.2670 C   0  0  0  0  0  0  0  0  0  0  0  0
   59.7351   32.1120   49.2997 C   0  0  0  0  0  0  0  0  0  0  0  0
   58.7197   32.3854   50.2247 C   0  0  0  0  0  0  0  0  0  0  0  0
   58.2766   31.3848   51.0941 C   0  0  0  0  0  0  0  0  0  0  0  0
   58.8501   30.1100   51.0546 C   0  0  0  0  0  0  0  0  0  0  0  0
   58.3452   29.1135   51.8829 O   0  0  0  0  0  0  0  0  0  0  0  0
   60.3093   33.3604   48.1970 S   0  0  0  0  0  0  0  0  0  0  0  0
   61.2460   34.2662   48.9480 O   0  0  0  0  0  0  0  0  0  0  0  0
   61.0602   32.7325   47.0551 O   0  0  0  0  0  0  0  0  0  0  0  0
   58.9373   34.2673   47.6000 N   0  0  0  0  0  0  0  0  0  0  0  0
   59.3531   35.4108   46.7649 C   0  0  0  0  0  0  0  0  0  0  0  0
   59.8356   34.9862   45.3653 C   0  0  0  0  0  0  0  0  0  0  0  0
   59.0005   33.8453   44.7562 C   0  0  0  0  0  0  0  0  0  0  0  0
   57.6726   33.6580   45.4861 C   0  0  0  0  0  0  0  0  0  0  0  0
   57.9139   33.3857   46.9811 C   0  0  0  0  0  0  0  0  0  0  0  0
   60.5235   27.6912   48.9339 C   0  0  0  0  0  0  0  0  0  0  0  0
   61.3357   26.7249   48.8827 O   0  0  0  0  0  0  0  0  0  0  0  0
   57.6699   27.2712   46.5053 N   0  0  0  0  0  0  0  0  0  0  0  0
   58.5286   27.0828   47.5519 C   0  0  0  0  0  0  0  0  0  0  0  0
   59.6106   27.9512   47.7838 C   0  0  0  0  0  0  0  0  0  0  0  0
   59.7875   29.0479   46.9133 C   0  0  0  0  0  0  0  0  0  0  0  0
   60.7437   29.8539   47.0827 O   0  0  0  0  0  0  0  0  0  0  0  0
   58.8906   29.2484   45.8500 C   0  0  0  0  0  0  0  0  0  0  0  0
   59.0202   30.3341   44.9650 C   0  0  0  0  0  0  0  0  0  0  0  0
   58.1050   30.5061   43.9283 C   0  0  0  0  0  0  0  0  0  0  0  0
   57.0611   29.5924   43.7777 C   0  0  0  0  0  0  0  0  0  0  0  0
   56.2269   29.7328   42.8465 O   0  0  0  0  0  0  0  0  0  0  0  0
   56.9467   28.5452   44.6361 N   0  0  0  0  0  0  0  0  0  0  0  0
   57.8225   28.3413   45.6622 C   0  0  0  0  0  0  0  0  0  0  0  0
   57.0227   25.0517   45.6504 C   0  0  0  0  0  0  0  0  0  0  0  0
   56.5489   26.3295   46.3363 C   0  0  0  0  0  0  0  0  0  0  0  0
 32 33  1  0
 33 20  1  0
 20 21  1  0
 21 22  2  0
 22 18  1  0
 18 19  2  0
 18  1  1  0
  1  2  1  0
  2  3  2  0
  3  4  1  0
  4  9  1  0
  9 10  2  0
  9 11  2  0
  9 12  1  0
 12 13  1  0
 13 14  1  0
 14 15  1  0
 15 16  1  0
 16 17  1  0
  4  5  2  0
  5  6  1  0
  6  7  2  0
  7  8  1  0
 22 23  1  0
 23 24  2  0
 23 25  1  0
 25 26  1  0
 26 27  2  0
 27 28  1  0
 28 29  2  0
 28 30  1  0
 30 31  1  0
 31 20  1  0
  7  2  1  0
 31 25  2  0
 17 12  1  0
M  CHG  3   1  -1   8  -1  30  -1
M  END
>  <UniqueID>  (32) 
47

>  <SMILES>  (32) 
CCn1cc(C(=O)[N-]c2cc(S(=O)(=O)N3CCCCC3)ccc2[O-])c(=O)c2ccc(=O)[n-]c21

>  <Energy>  (32) 
77.38200270811423

>  <Genealogy>  (32) 
CCn1cc(C(=O)[N-]c2cc(S(=O)(=O)N3CCCCC3)ccc2[O-])c(=O)c2ccc(=O)[n-]c21 (protonated)
CCn1cc(C(=O)[N-]c2cc(S(=O)(=O)N3CCCCC3)ccc2[O-])c(=O)c2ccc(=O)[n-]c21 (3D coordinates assigned)
CCn1cc(C(=O)[N-]c2cc(S(=O)(=O)N3CCCCC3)ccc2[O-])c(=O)c2ccc(=O)[n-]c21 (nonaromatic ring conformer: 77.38200270811423 kcal/mol)

>  <smiles>  (32) 
CCn1cc(C(=O)Nc2cc(S(=O)(=O)N3CCCCC3)ccc2O)c(=O)c2ccc(=O)[nH]c21

>  <score_type>  (32) 
oracle

>  <origin>  (32) 
adg

>  <m_score__min__energy>  (32) 
-14.640000000000001

>  <m_primary>  (32) 
energy

>  <minimizedAffinity>  (32) 
-6.32742

>  <minimizedRMSD>  (32) 
0.48300

>  <CNNscore>  (32) 
0.2972077429

>  <CNNaffinity>  (32) 
6.8054656982

>  <CNN_VS>  (32) 
2.0226371288

>  <CNNaffinity_variance>  (32) 
0.0210001115

$$$$
93:0
     RDKit          3D

 27 29  0  0  0  0  0  0  0  0999 V2000
   58.9146   29.3158   46.8928 C   0  0  0  0  0  0  0  0  0  0  0  0
   58.9188   30.1968   45.8131 C   0  0  0  0  0  0  0  0  0  0  0  0
   58.8883   31.5328   46.0232 N   0  0  0  0  0  0  0  0  0  0  0  0
   58.8576   32.1031   47.2561 C   0  0  0  0  0  0  0  0  0  0  0  0
   58.8051   33.4116   47.2761 N   0  0  0  0  0  0  0  0  0  0  0  0
   58.8852   31.2483   48.4055 C   0  0  0  0  0  0  0  0  0  0  0  0
   58.9535   31.7534   49.8268 C   0  0  0  0  0  0  0  0  0  0  0  0
   58.9150   29.8463   48.1939 C   0  0  0  0  0  0  0  0  0  0  0  0
   58.9745   28.9724   49.2780 O   0  0  0  0  0  0  0  0  0  0  0  0
   57.7275   25.7566   46.3026 C   0  0  0  0  0  0  0  0  0  0  0  0
   58.9502   25.0870   46.1605 C   0  0  0  0  0  0  0  0  0  0  0  0
   60.1523   25.7908   46.2627 C   0  0  0  0  0  0  0  0  0  0  0  0
   60.1414   27.1663   46.5048 C   0  0  0  0  0  0  0  0  0  0  0  0
   58.9242   27.8521   46.6506 C   0  0  0  0  0  0  0  0  0  0  0  0
   57.7182   27.1392   46.5365 C   0  0  0  0  0  0  0  0  0  0  0  0
   54.9165   25.9995   45.9095 N   0  0  0  0  0  0  0  0  0  0  0  0
   56.2096   24.8795   46.1501 S   0  0  0  0  0  0  0  0  0  0  0  0
   56.2782   23.9379   44.9801 O   0  0  0  0  0  0  0  0  0  0  0  0
   55.9583   24.0793   47.3978 O   0  0  0  0  0  0  0  0  0  0  0  0
   59.7548   34.4754   47.6052 C   0  0  0  0  0  0  0  0  0  0  0  0
   61.1411   33.9378   47.8828 C   0  0  0  0  0  0  0  0  0  0  0  0
   61.6652   33.8587   49.1894 C   0  0  0  0  0  0  0  0  0  0  0  0
   60.9046   34.2411   50.2890 O   0  0  0  0  0  0  0  0  0  0  0  0
   62.9352   33.4146   49.3894 N   0  0  0  0  0  0  0  0  0  0  0  0
   63.7426   33.0588   48.3561 C   0  0  0  0  0  0  0  0  0  0  0  0
   63.2837   33.1609   47.0449 C   0  0  0  0  0  0  0  0  0  0  0  0
   61.9868   33.6155   46.8085 C   0  0  0  0  0  0  0  0  0  0  0  0
 16 17  1  0
 17 18  2  0
 17 19  2  0
 17 10  1  0
 10 11  2  0
 11 12  1  0
 12 13  2  0
 13 14  1  0
 14  1  1  0
  1  2  2  0
  2  3  1  0
  3  4  1  0
  4  5  2  0
  5 20  1  0
 20 21  1  0
 21 22  2  0
 22 23  1  0
 22 24  1  0
 24 25  2  0
 25 26  1  0
 26 27  2  0
  4  6  1  0
  6  7  1  0
  6  8  2  0
  8  9  1  0
 14 15  2  0
 15 10  1  0
  8  1  1  0
 27 21  1  0
M  CHG  4   3  -1   9  -1  16  -1  23  -1
M  END
>  <UniqueID>  (33) 
90

>  <SMILES>  (33) 
Cc1c([O-])c(-c2cccc(S([NH-])(=O)=O)c2)c[n-]/c1=N/Cc1cccnc1[O-]

>  <Energy>  (33) 
67.45136553007063

>  <Genealogy>  (33) 
Cc1c([O-])c(-c2cccc(S([NH-])(=O)=O)c2)c[n-]c1=NCc1cccnc1[O-] (protonated)
Cc1c([O-])c(-c2cccc(S([NH-])(=O)=O)c2)c[n-]/c1=N/Cc1cccnc1[O-] (cis-trans isomerization)
Cc1c([O-])c(-c2cccc(S([NH-])(=O)=O)c2)c[n-]/c1=N/Cc1cccnc1[O-] (3D coordinates assigned)
Cc1c([O-])c(-c2cccc(S([NH-])(=O)=O)c2)c[n-]/c1=N/Cc1cccnc1[O-] (optimized conformer: 67.45136553007063 kcal/mol)

>  <smiles>  (33) 
Cc1c(O)c(-c2cccc(S(N)(=O)=O)c2)c[nH]c1=NCc1cccnc1O

>  <score_type>  (33) 
oracle

>  <origin>  (33) 
adg

>  <m_score__min__energy>  (33) 
-16.039999999999999

>  <m_primary>  (33) 
energy

>  <minimizedAffinity>  (33) 
-8.77786

>  <minimizedRMSD>  (33) 
0.28275

>  <CNNscore>  (33) 
0.8385229111

>  <CNNaffinity>  (33) 
7.3503594398

>  <CNN_VS>  (33) 
6.1634449959

>  <CNNaffinity_variance>  (33) 
0.3520337641

$$$$
27:0
     RDKit          3D

 34 37  0  0  0  0  0  0  0  0999 V2000
   58.7855   30.0889   48.2753 O   0  0  0  0  0  0  0  0  0  0  0  0
   58.6043   29.0917   47.5271 C   0  0  0  0  0  0  0  0  0  0  0  0
   58.3982   29.2995   46.0604 C   0  0  0  0  0  0  0  0  0  0  0  0
   58.3986   30.7299   45.7556 N   0  0  0  0  0  0  0  0  0  0  0  0
   59.3278   31.6508   46.0742 C   0  0  0  0  0  0  0  0  0  0  0  0
   60.5388   31.3938   46.7152 O   0  0  0  0  0  0  0  0  0  0  0  0
   58.8845   32.8896   45.6667 C   0  0  0  0  0  0  0  0  0  0  0  0
   57.6704   32.7679   45.0881 N   0  0  0  0  0  0  0  0  0  0  0  0
   57.4099   31.4443   45.1750 C   0  0  0  0  0  0  0  0  0  0  0  0
   56.3389   30.9323   44.7540 O   0  0  0  0  0  0  0  0  0  0  0  0
   59.6376   34.1832   45.7645 C   0  0  0  0  0  0  0  0  0  0  0  0
   59.8305   34.6162   47.2234 C   0  0  0  0  0  0  0  0  0  0  0  0
   61.1312   34.1047   47.7900 C   0  0  0  0  0  0  0  0  0  0  0  0
   62.2189   33.8368   46.9422 C   0  0  0  0  0  0  0  0  0  0  0  0
   63.4368   33.4019   47.4743 C   0  0  0  0  0  0  0  0  0  0  0  0
   63.5788   33.2401   48.8553 C   0  0  0  0  0  0  0  0  0  0  0  0
   62.5038   33.5115   49.7064 C   0  0  0  0  0  0  0  0  0  0  0  0
   61.2837   33.9456   49.1760 C   0  0  0  0  0  0  0  0  0  0  0  0
   58.7067   27.7574   48.0411 N   0  0  0  0  0  0  0  0  0  0  0  0
   58.7968   26.5527   47.2685 C   0  0  0  0  0  0  0  0  0  0  0  0
   59.9248   26.2514   46.4836 C   0  0  0  0  0  0  0  0  0  0  0  0
   59.9777   25.0591   45.7579 C   0  0  0  0  0  0  0  0  0  0  0  0
   58.9142   24.1562   45.8128 C   0  0  0  0  0  0  0  0  0  0  0  0
   57.7928   24.4354   46.6069 C   0  0  0  0  0  0  0  0  0  0  0  0
   57.7467   25.6275   47.3438 C   0  0  0  0  0  0  0  0  0  0  0  0
   56.4629   23.2831   46.7008 S   0  0  0  0  0  0  0  0  0  0  0  0
   56.8021   22.2276   47.7174 O   0  0  0  0  0  0  0  0  0  0  0  0
   55.2147   23.9930   47.1517 O   0  0  0  0  0  0  0  0  0  0  0  0
   56.2067   22.5361   45.1431 N   0  0  0  0  0  0  0  0  0  0  0  0
   57.3236   21.6235   44.8314 C   0  0  0  0  0  0  0  0  0  0  0  0
   57.3160   21.2252   43.3428 C   0  0  0  0  0  0  0  0  0  0  0  0
   56.0673   21.5163   42.7485 O   0  0  0  0  0  0  0  0  0  0  0  0
   55.8605   22.9201   42.7286 C   0  0  0  0  0  0  0  0  0  0  0  0
   56.0915   23.5737   44.1075 C   0  0  0  0  0  0  0  0  0  0  0  0
  1  2  2  0
  2  3  1  0
  3  4  1  0
  4  5  1  0
  5  6  1  0
  5  7  2  0
  7 11  1  0
 11 12  1  0
 12 13  1  0
 13 14  2  0
 14 15  1  0
 15 16  2  0
 16 17  1  0
 17 18  2  0
  7  8  1  0
  8  9  1  0
  9 10  2  0
  2 19  1  0
 19 20  1  0
 20 21  2  0
 21 22  1  0
 22 23  2  0
 23 24  1  0
 24 26  1  0
 26 27  2  0
 26 28  2  0
 26 29  1  0
 29 30  1  0
 30 31  1  0
 31 32  1  0
 32 33  1  0
 33 34  1  0
 24 25  2  0
  9  4  1  0
 25 20  1  0
 18 13  1  0
 34 29  1  0
M  CHG  2   8  -1  19  -1
M  END
>  <UniqueID>  (34) 
26

>  <SMILES>  (34) 
O=C(Cn1c(O)c(CCc2ccccc2)[n-]c1=O)[N-]c1cccc(S(=O)(=O)N2CCOCC2)c1

>  <Energy>  (34) 
97.3548701015984

>  <Genealogy>  (34) 
O=C(Cn1c(O)c(CCc2ccccc2)[n-]c1=O)[N-]c1cccc(S(=O)(=O)N2CCOCC2)c1 (protonated)
O=C(Cn1c(O)c(CCc2ccccc2)[n-]c1=O)[N-]c1cccc(S(=O)(=O)N2CCOCC2)c1 (3D coordinates assigned)
O=C(Cn1c(O)c(CCc2ccccc2)[n-]c1=O)[N-]c1cccc(S(=O)(=O)N2CCOCC2)c1 (nonaromatic ring conformer: 97.3548701015984 kcal/mol)

>  <smiles>  (34) 
O=C(Cn1c(O)c(CCc2ccccc2)[nH]c1=O)Nc1cccc(S(=O)(=O)N2CCOCC2)c1

>  <score_type>  (34) 
oracle

>  <origin>  (34) 
adg

>  <m_score__min__energy>  (34) 
-14.119999999999999

>  <m_primary>  (34) 
energy

>  <minimizedAffinity>  (34) 
-7.12460

>  <minimizedRMSD>  (34) 
0.40414

>  <CNNscore>  (34) 
0.2475147992

>  <CNNaffinity>  (34) 
6.4713516235

>  <CNN_VS>  (34) 
1.6017552614

>  <CNNaffinity_variance>  (34) 
0.0248962510

$$$$
55:0
     RDKit          3D

 30 33  0  0  0  0  0  0  0  0999 V2000
   58.5164   28.4805   47.1952 C   0  0  0  0  0  0  0  0  0  0  0  0
   58.4928   28.9741   48.3552 O   0  0  0  0  0  0  0  0  0  0  0  0
   59.0847   27.1714   46.9910 N   0  0  0  0  0  0  0  0  0  0  0  0
   59.6136   26.7844   45.6878 C   0  0  0  0  0  0  0  0  0  0  0  0
   58.6015   25.8833   44.9837 C   0  0  0  0  0  0  0  0  0  0  0  0
   58.0236   24.8129   45.8999 C   0  0  0  0  0  0  0  0  0  0  0  0
   58.1383   24.9297   47.3093 C   0  0  0  0  0  0  0  0  0  0  0  0
   57.6108   23.9074   48.1175 C   0  0  0  0  0  0  0  0  0  0  0  0
   57.7340   23.9564   49.3702 O   0  0  0  0  0  0  0  0  0  0  0  0
   56.9743   22.8774   47.5768 O   0  0  0  0  0  0  0  0  0  0  0  0
   56.7938   22.7459   46.2695 C   0  0  0  0  0  0  0  0  0  0  0  0
   56.0902   21.6365   45.7879 C   0  0  0  0  0  0  0  0  0  0  0  0
   55.8693   21.4827   44.4187 C   0  0  0  0  0  0  0  0  0  0  0  0
   56.3447   22.4413   43.5226 C   0  0  0  0  0  0  0  0  0  0  0  0
   56.1105   22.2893   42.1606 O   0  0  0  0  0  0  0  0  0  0  0  0
   57.0533   23.5529   43.9885 C   0  0  0  0  0  0  0  0  0  0  0  0
   57.3003   23.7154   45.3705 C   0  0  0  0  0  0  0  0  0  0  0  0
   58.8669   26.0902   47.9551 C   0  0  0  0  0  0  0  0  0  0  0  0
   57.9879   31.3245   44.7467 C   0  0  0  0  0  0  0  0  0  0  0  0
   56.9681   30.8014   43.9347 C   0  0  0  0  0  0  0  0  0  0  0  0
   56.4426   29.5342   44.1932 C   0  0  0  0  0  0  0  0  0  0  0  0
   56.9291   28.7706   45.2578 C   0  0  0  0  0  0  0  0  0  0  0  0
   56.3558   27.5300   45.5164 O   0  0  0  0  0  0  0  0  0  0  0  0
   57.9679   29.2697   46.0670 C   0  0  0  0  0  0  0  0  0  0  0  0
   58.4774   30.5550   45.8102 C   0  0  0  0  0  0  0  0  0  0  0  0
   58.5535   32.6229   44.5271 N   0  0  0  0  0  0  0  0  0  0  0  0
   59.7020   35.0869   45.4834 C   0  0  0  0  0  0  0  0  0  0  0  0
   58.2674   34.0338   45.4950 S   0  0  0  0  0  0  0  0  0  0  0  0
   57.9229   33.6314   46.9011 O   0  0  0  0  0  0  0  0  0  0  0  0
   57.1089   34.7920   44.9111 O   0  0  0  0  0  0  0  0  0  0  0  0
 27 28  1  0
 28 29  2  0
 28 30  2  0
 28 26  1  0
 26 19  1  0
 19 20  2  0
 20 21  1  0
 21 22  2  0
 22 23  1  0
 22 24  1  0
 24  1  1  0
  1  2  2  0
  1  3  1  0
  3  4  1  0
  4  5  1  0
  5  6  1  0
  6  7  2  0
  7  8  1  0
  8  9  2  0
  8 10  1  0
 10 11  1  0
 11 12  2  0
 12 13  1  0
 13 14  2  0
 14 15  1  0
 14 16  1  0
 16 17  2  0
  7 18  1  0
 24 25  2  0
 25 19  1  0
 18  3  1  0
 17  6  1  0
 17 11  1  0
M  CHG  3  15  -1  23  -1  26  -1
M  END
>  <UniqueID>  (35) 
54

>  <SMILES>  (35) 
CS(=O)(=O)[N-]c1ccc([O-])c(C(=O)N2CCc3c(c(=O)oc4ccc([O-])cc34)C2)c1

>  <Energy>  (35) 
64.58855793046381

>  <Genealogy>  (35) 
CS(=O)(=O)[N-]c1ccc([O-])c(C(=O)N2CCc3c(c(=O)oc4ccc([O-])cc34)C2)c1 (protonated)
CS(=O)(=O)[N-]c1ccc([O-])c(C(=O)N2CCc3c(c(=O)oc4ccc([O-])cc34)C2)c1 (3D coordinates assigned)
CS(=O)(=O)[N-]c1ccc([O-])c(C(=O)N2CCc3c(c(=O)oc4ccc([O-])cc34)C2)c1 (nonaromatic ring conformer: 64.58855793046381 kcal/mol)

>  <smiles>  (35) 
CS(=O)(=O)Nc1ccc(O)c(C(=O)N2CCc3c(c(=O)oc4ccc(O)cc34)C2)c1

>  <score_type>  (35) 
oracle

>  <origin>  (35) 
adg

>  <m_score__min__energy>  (35) 
-14.640000000000001

>  <m_primary>  (35) 
energy

>  <minimizedAffinity>  (35) 
-3.26140

>  <minimizedRMSD>  (35) 
0.45776

>  <CNNscore>  (35) 
0.1367786229

>  <CNNaffinity>  (35) 
5.2825379372

>  <CNN_VS>  (35) 
0.7225382924

>  <CNNaffinity_variance>  (35) 
0.3528960049

$$$$
73:0
     RDKit          3D

 34 37  0  0  0  0  0  0  0  0999 V2000
   59.6407   28.4670   45.2603 C   0  0  0  0  0  0  0  0  0  0  0  0
   60.3280   29.4342   46.0111 C   0  0  0  0  0  0  0  0  0  0  0  0
   59.8582   30.7469   46.0678 C   0  0  0  0  0  0  0  0  0  0  0  0
   58.6957   31.1099   45.3789 C   0  0  0  0  0  0  0  0  0  0  0  0
   58.0393   30.1649   44.5814 C   0  0  0  0  0  0  0  0  0  0  0  0
   58.5102   28.8499   44.5196 C   0  0  0  0  0  0  0  0  0  0  0  0
   57.9830   32.6921   45.6605 S   0  0  0  0  0  0  0  0  0  0  0  0
   58.7606   33.7238   44.8939 O   0  0  0  0  0  0  0  0  0  0  0  0
   56.5568   32.7170   45.1837 O   0  0  0  0  0  0  0  0  0  0  0  0
   58.0535   33.0698   47.3589 N   0  0  0  0  0  0  0  0  0  0  0  0
   58.9792   34.1756   47.6286 C   0  0  0  0  0  0  0  0  0  0  0  0
   59.9078   33.8607   48.8102 C   0  0  0  0  0  0  0  0  0  0  0  0
   61.2523   33.3542   48.3574 C   0  0  0  0  0  0  0  0  0  0  0  0
   61.8111   33.7983   47.1460 C   0  0  0  0  0  0  0  0  0  0  0  0
   63.0659   33.3356   46.7375 C   0  0  0  0  0  0  0  0  0  0  0  0
   63.7695   32.4273   47.5320 C   0  0  0  0  0  0  0  0  0  0  0  0
   63.2232   31.9824   48.7384 C   0  0  0  0  0  0  0  0  0  0  0  0
   61.9697   32.4442   49.1530 C   0  0  0  0  0  0  0  0  0  0  0  0
   60.0327   27.0175   45.3574 C   0  0  0  0  0  0  0  0  0  0  0  0
   57.9534   25.1039   44.2589 C   0  0  0  0  0  0  0  0  0  0  0  0
   58.1584   25.3068   45.5704 C   0  0  0  0  0  0  0  0  0  0  0  0
   57.4630   24.6896   46.6236 C   0  0  0  0  0  0  0  0  0  0  0  0
   56.6395   23.6239   46.6355 C   0  0  0  0  0  0  0  0  0  0  0  0
   57.8246   25.3647   47.7735 C   0  0  0  0  0  0  0  0  0  0  0  0
   58.7653   26.3035   47.4101 C   0  0  0  0  0  0  0  0  0  0  0  0
   59.5173   27.1502   48.3936 C   0  0  0  0  0  0  0  0  0  0  0  0
   58.9847   26.2667   46.0731 N   0  0  0  0  0  0  0  0  0  0  0  0
   55.2620   23.6030   46.1149 C   0  0  0  0  0  0  0  0  0  0  0  0
   54.5132   22.4911   45.9879 N   0  0  0  0  0  0  0  0  0  0  0  0
   53.3065   22.9684   45.6177 C   0  0  0  0  0  0  0  0  0  0  0  0
   52.3238   22.2174   45.3833 O   0  0  0  0  0  0  0  0  0  0  0  0
   53.2330   24.3122   45.5259 N   0  0  0  0  0  0  0  0  0  0  0  0
   54.4739   24.7021   45.8572 C   0  0  0  0  0  0  0  0  0  0  0  0
   54.8675   26.0359   45.9186 O   0  0  0  0  0  0  0  0  0  0  0  0
 20 21  2  0
 21 22  1  0
 22 23  2  0
 23 28  1  0
 28 29  1  0
 29 30  1  0
 30 31  2  0
 30 32  1  0
 32 33  1  0
 33 34  1  0
 22 24  1  0
 24 25  2  0
 25 26  1  0
 25 27  1  0
 27 19  1  0
 19  1  1  0
  1  2  2  0
  2  3  1  0
  3  4  2  0
  4  7  1  0
  7  8  2  0
  7  9  2  0
  7 10  1  0
 10 11  1  0
 11 12  1  0
 12 13  1  0
 13 14  2  0
 14 15  1  0
 15 16  2  0
 16 17  1  0
 17 18  2  0
  4  5  1  0
  5  6  2  0
 27 21  1  0
  6  1  1  0
 33 28  2  0
 18 13  1  0
M  CHG  3  10  -1  29  -1  32  -1
M  END
>  <UniqueID>  (36) 
66

>  <SMILES>  (36) 
C=c1c(=Cc2[n-]c(=O)[n-]c2O)cc(C)n1Cc1ccc(S(=O)(=O)[N-]CCc2ccccc2)cc1

>  <Energy>  (36) 
122.99625179452241

>  <Genealogy>  (36) 
C=c1c(=Cc2[n-]c(=O)[n-]c2O)cc(C)n1Cc1ccc(S(=O)(=O)[N-]CCc2ccccc2)cc1 (protonated)
C=c1c(=Cc2[n-]c(=O)[n-]c2O)cc(C)n1Cc1ccc(S(=O)(=O)[N-]CCc2ccccc2)cc1 (3D coordinates assigned)
C=c1c(=Cc2[n-]c(=O)[n-]c2O)cc(C)n1Cc1ccc(S(=O)(=O)[N-]CCc2ccccc2)cc1 (optimized conformer: 122.99625179452241 kcal/mol)

>  <smiles>  (36) 
C=c1c(=Cc2[nH]c(=O)[nH]c2O)cc(C)n1Cc1ccc(S(=O)(=O)NCCc2ccccc2)cc1

>  <score_type>  (36) 
oracle

>  <origin>  (36) 
adg

>  <m_score__min__energy>  (36) 
-15.25

>  <m_primary>  (36) 
energy

>  <minimizedAffinity>  (36) 
-7.15212

>  <minimizedRMSD>  (36) 
0.45683

>  <CNNscore>  (36) 
0.2571852803

>  <CNNaffinity>  (36) 
6.8728561401

>  <CNN_VS>  (36) 
1.7675974369

>  <CNNaffinity_variance>  (36) 
0.0252119061

$$$$
80:0
     RDKit          3D

 29 31  0  0  0  0  0  0  0  0999 V2000
   60.1353   32.5405   50.3223 C   0  0  0  0  0  0  0  0  0  0  0  0
   61.2047   32.6893   49.2588 C   0  0  0  0  0  0  0  0  0  0  0  0
   62.3535   31.8802   49.3615 C   0  0  0  0  0  0  0  0  0  0  0  0
   63.3571   31.9367   48.3948 C   0  0  0  0  0  0  0  0  0  0  0  0
   63.2350   32.8013   47.3116 C   0  0  0  0  0  0  0  0  0  0  0  0
   62.1112   33.6204   47.1940 C   0  0  0  0  0  0  0  0  0  0  0  0
   61.0843   33.5813   48.1569 C   0  0  0  0  0  0  0  0  0  0  0  0
   59.9048   34.5178   47.9828 C   0  0  0  0  0  0  0  0  0  0  0  0
   59.0410   34.0941   46.8746 N   0  0  0  0  0  0  0  0  0  0  0  0
   59.0203   34.6262   45.6334 C   0  0  0  0  0  0  0  0  0  0  0  0
   59.8734   35.6363   45.2040 O   0  0  0  0  0  0  0  0  0  0  0  0
   58.0390   34.0501   44.8555 C   0  0  0  0  0  0  0  0  0  0  0  0
   57.4039   33.1276   45.6636 C   0  0  0  0  0  0  0  0  0  0  0  0
   58.0318   33.1900   46.8914 C   0  0  0  0  0  0  0  0  0  0  0  0
   57.6498   32.4224   47.9925 O   0  0  0  0  0  0  0  0  0  0  0  0
   59.7208   31.0785   50.5122 C   0  0  0  0  0  0  0  0  0  0  0  0
   59.3335   30.4890   49.2374 N   0  0  0  0  0  0  0  0  0  0  0  0
   59.8449   29.2371   48.7698 C   0  0  0  0  0  0  0  0  0  0  0  0
   60.6892   28.6088   49.4657 O   0  0  0  0  0  0  0  0  0  0  0  0
   58.1229   27.0118   43.6804 C   0  0  0  0  0  0  0  0  0  0  0  0
   58.5174   27.6162   45.0043 C   0  0  0  0  0  0  0  0  0  0  0  0
   59.3844   26.8900   45.8371 C   0  0  0  0  0  0  0  0  0  0  0  0
   59.8113   27.4122   47.0559 C   0  0  0  0  0  0  0  0  0  0  0  0
   59.3795   28.6784   47.4785 C   0  0  0  0  0  0  0  0  0  0  0  0
   58.5010   29.4056   46.6579 C   0  0  0  0  0  0  0  0  0  0  0  0
   58.0489   28.8895   45.4276 C   0  0  0  0  0  0  0  0  0  0  0  0
   57.0973   29.7061   44.6262 C   0  0  0  0  0  0  0  0  0  0  0  0
   55.6911   29.5428   44.7994 N   0  0  0  0  0  0  0  0  0  0  0  0
   57.5143   30.5289   43.7684 O   0  0  0  0  0  0  0  0  0  0  0  0
 20 21  1  0
 21 22  2  0
 22 23  1  0
 23 24  2  0
 24 18  1  0
 18 19  2  0
 18 17  1  0
 17 16  1  0
 16  1  1  0
  1  2  1  0
  2  3  2  0
  3  4  1  0
  4  5  2  0
  5  6  1  0
  6  7  2  0
  7  8  1  0
  8  9  1  0
  9 10  1  0
 10 11  1  0
 10 12  2  0
 12 13  1  0
 13 14  2  0
 14 15  1  0
 24 25  1  0
 25 26  2  0
 26 27  1  0
 27 28  1  0
 27 29  2  0
 26 21  1  0
  7  2  1  0
 14  9  1  0
M  CHG  3  11  -1  17  -1  28  -1
M  END
>  <UniqueID>  (37) 
77

>  <SMILES>  (37) 
Cc1ccc(C(=O)[N-]CCc2ccccc2Cn2c([O-])ccc2O)cc1C([NH-])=O

>  <Energy>  (37) 
80.62231726984395

>  <Genealogy>  (37) 
Cc1ccc(C(=O)[N-]CCc2ccccc2Cn2c([O-])ccc2O)cc1C([NH-])=O (protonated)
Cc1ccc(C(=O)[N-]CCc2ccccc2Cn2c([O-])ccc2O)cc1C([NH-])=O (3D coordinates assigned)
Cc1ccc(C(=O)[N-]CCc2ccccc2Cn2c([O-])ccc2O)cc1C([NH-])=O (optimized conformer: 80.62231726984395 kcal/mol)

>  <smiles>  (37) 
Cc1ccc(C(=O)NCCc2ccccc2Cn2c(O)ccc2O)cc1C(N)=O

>  <score_type>  (37) 
oracle

>  <origin>  (37) 
adg

>  <m_score__min__energy>  (37) 
-15.57

>  <m_primary>  (37) 
energy

>  <minimizedAffinity>  (37) 
-8.21479

>  <minimizedRMSD>  (37) 
0.47721

>  <CNNscore>  (37) 
0.9263513684

>  <CNNaffinity>  (37) 
7.0738844872

>  <CNN_VS>  (37) 
6.5529026985

>  <CNNaffinity_variance>  (37) 
0.0669007897

$$$$
70:0
     RDKit          3D

 34 38  0  0  0  0  0  0  0  0999 V2000
   58.5544   31.0421   45.4111 C   0  0  0  0  0  0  0  0  0  0  0  0
   58.2759   31.8370   44.2902 C   0  0  0  0  0  0  0  0  0  0  0  0
   58.1840   33.2245   44.4127 C   0  0  0  0  0  0  0  0  0  0  0  0
   58.3688   33.8303   45.6546 C   0  0  0  0  0  0  0  0  0  0  0  0
   58.6413   33.0503   46.7820 C   0  0  0  0  0  0  0  0  0  0  0  0
   58.7395   31.6529   46.6763 C   0  0  0  0  0  0  0  0  0  0  0  0
   58.9830   30.8459   47.8985 C   0  0  0  0  0  0  0  0  0  0  0  0
   58.5429   29.6657   47.9588 O   0  0  0  0  0  0  0  0  0  0  0  0
   59.7107   31.3870   49.0198 N   0  0  0  0  0  0  0  0  0  0  0  0
   59.0998   31.3807   50.3587 C   0  0  0  0  0  0  0  0  0  0  0  0
   59.3675   32.6707   51.0782 C   0  0  0  0  0  0  0  0  0  0  0  0
   58.5854   33.0669   51.9803 O   0  0  0  0  0  0  0  0  0  0  0  0
   60.5535   33.4125   50.7923 N   0  0  0  0  0  0  0  0  0  0  0  0
   61.4108   33.0244   49.7178 C   0  0  0  0  0  0  0  0  0  0  0  0
   62.6439   33.6613   49.5427 C   0  0  0  0  0  0  0  0  0  0  0  0
   63.4889   33.2756   48.4991 C   0  0  0  0  0  0  0  0  0  0  0  0
   63.1037   32.2519   47.6296 C   0  0  0  0  0  0  0  0  0  0  0  0
   61.8689   31.6175   47.7947 C   0  0  0  0  0  0  0  0  0  0  0  0
   61.0032   32.0084   48.8342 C   0  0  0  0  0  0  0  0  0  0  0  0
   56.4041   29.0678   44.9044 C   0  0  0  0  0  0  0  0  0  0  0  0
   57.7038   28.7365   44.9333 C   0  0  0  0  0  0  0  0  0  0  0  0
   58.2524   27.4493   44.8333 C   0  0  0  0  0  0  0  0  0  0  0  0
   57.6985   26.2841   44.4494 C   0  0  0  0  0  0  0  0  0  0  0  0
   59.5854   27.5674   45.1954 C   0  0  0  0  0  0  0  0  0  0  0  0
   59.8226   28.9086   45.4156 C   0  0  0  0  0  0  0  0  0  0  0  0
   61.1458   29.4930   45.8070 C   0  0  0  0  0  0  0  0  0  0  0  0
   58.6862   29.6188   45.2484 N   0  0  0  0  0  0  0  0  0  0  0  0
   57.1971   25.2406   45.3578 C   0  0  0  0  0  0  0  0  0  0  0  0
   57.8728   24.1232   45.6898 N   0  0  0  0  0  0  0  0  0  0  0  0
   57.0890   23.5537   46.6309 C   0  0  0  0  0  0  0  0  0  0  0  0
   57.3810   22.4621   47.1848 O   0  0  0  0  0  0  0  0  0  0  0  0
   55.9744   24.2503   46.9396 N   0  0  0  0  0  0  0  0  0  0  0  0
   56.0674   25.3234   46.1349 C   0  0  0  0  0  0  0  0  0  0  0  0
   55.1404   26.3598   46.1093 O   0  0  0  0  0  0  0  0  0  0  0  0
 20 21  2  0
 21 22  1  0
 22 23  2  0
 23 28  1  0
 28 29  1  0
 29 30  1  0
 30 31  2  0
 30 32  1  0
 32 33  1  0
 33 34  1  0
 22 24  1  0
 24 25  2  0
 25 26  1  0
 25 27  1  0
 27  1  1  0
  1  2  2  0
  2  3  1  0
  3  4  2  0
  4  5  1  0
  5  6  2  0
  6  7  1  0
  7  8  2  0
  7  9  1  0
  9 10  1  0
 10 11  1  0
 11 12  2  0
 11 13  1  0
 13 14  1  0
 14 15  2  0
 15 16  1  0
 16 17  2  0
 17 18  1  0
 18 19  2  0
 27 21  1  0
  6  1  1  0
 19  9  1  0
 33 28  2  0
 19 14  1  0
M  CHG  3  13  -1  29  -1  32  -1
M  END
>  <UniqueID>  (38) 
64

>  <SMILES>  (38) 
C=c1c(=Cc2[n-]c(=O)[n-]c2O)cc(C)n1-c1ccccc1C(=O)N1CC(=O)[N-]c2ccccc21

>  <Energy>  (38) 
141.21749376077204

>  <Genealogy>  (38) 
C=c1c(=Cc2[n-]c(=O)[n-]c2O)cc(C)n1-c1ccccc1C(=O)N1CC(=O)[N-]c2ccccc21 (protonated)
C=c1c(=Cc2[n-]c(=O)[n-]c2O)cc(C)n1-c1ccccc1C(=O)N1CC(=O)[N-]c2ccccc21 (3D coordinates assigned)
C=c1c(=Cc2[n-]c(=O)[n-]c2O)cc(C)n1-c1ccccc1C(=O)N1CC(=O)[N-]c2ccccc21 (nonaromatic ring conformer: 141.21749376077204 kcal/mol)

>  <smiles>  (38) 
C=c1c(=Cc2[nH]c(=O)[nH]c2O)cc(C)n1-c1ccccc1C(=O)N1CC(=O)Nc2ccccc21

>  <score_type>  (38) 
oracle

>  <origin>  (38) 
adg

>  <m_score__min__energy>  (38) 
-15.710000000000001

>  <m_primary>  (38) 
energy

>  <minimizedAffinity>  (38) 
-10.59000

>  <minimizedRMSD>  (38) 
0.37140

>  <CNNscore>  (38) 
0.8490926027

>  <CNNaffinity>  (38) 
7.5211753845

>  <CNN_VS>  (38) 
6.3861742020

>  <CNNaffinity_variance>  (38) 
0.1785370559

$$$$
57:0
     RDKit          3D

 35 39  0  0  0  0  0  0  0  0999 V2000
   59.5600   29.4659   44.9591 C   0  0  0  0  0  0  0  0  0  0  0  0
   59.4893   28.8716   46.1609 C   0  0  0  0  0  0  0  0  0  0  0  0
   58.8838   27.6354   46.4491 C   0  0  0  0  0  0  0  0  0  0  0  0
   58.0988   26.8376   45.6964 C   0  0  0  0  0  0  0  0  0  0  0  0
   59.2318   27.3255   47.7521 C   0  0  0  0  0  0  0  0  0  0  0  0
   59.9695   28.3848   48.2267 C   0  0  0  0  0  0  0  0  0  0  0  0
   60.1274   29.3318   47.2723 N   0  0  0  0  0  0  0  0  0  0  0  0
   60.5264   28.4594   49.5896 C   0  0  0  0  0  0  0  0  0  0  0  0
   61.0426   27.4133   50.0648 O   0  0  0  0  0  0  0  0  0  0  0  0
   60.5036   29.6941   50.3606 N   0  0  0  0  0  0  0  0  0  0  0  0
   61.6897   30.2749   50.7353 C   0  0  0  0  0  0  0  0  0  0  0  0
   61.7193   31.4391   51.5010 C   0  0  0  0  0  0  0  0  0  0  0  0
   60.5237   32.0360   51.8975 C   0  0  0  0  0  0  0  0  0  0  0  0
   60.5334   33.2017   52.6803 C   0  0  0  0  0  0  0  0  0  0  0  0
   59.3295   33.7894   53.0789 C   0  0  0  0  0  0  0  0  0  0  0  0
   58.1118   33.2206   52.6980 C   0  0  0  0  0  0  0  0  0  0  0  0
   58.0917   32.0620   51.9190 C   0  0  0  0  0  0  0  0  0  0  0  0
   59.2967   31.4546   51.5096 C   0  0  0  0  0  0  0  0  0  0  0  0
   59.3099   30.2789   50.7296 C   0  0  0  0  0  0  0  0  0  0  0  0
   58.2102   29.7752   50.3638 O   0  0  0  0  0  0  0  0  0  0  0  0
   57.4561   25.5963   46.1518 C   0  0  0  0  0  0  0  0  0  0  0  0
   58.0996   24.4309   46.3502 N   0  0  0  0  0  0  0  0  0  0  0  0
   57.0998   23.5707   46.6391 C   0  0  0  0  0  0  0  0  0  0  0  0
   57.3052   22.3565   46.8996 O   0  0  0  0  0  0  0  0  0  0  0  0
   55.8606   24.1099   46.6153 N   0  0  0  0  0  0  0  0  0  0  0  0
   56.1050   25.3909   46.2909 C   0  0  0  0  0  0  0  0  0  0  0  0
   55.1152   26.3557   46.1264 O   0  0  0  0  0  0  0  0  0  0  0  0
   60.9710   30.5322   47.4053 C   0  0  0  0  0  0  0  0  0  0  0  0
   60.1400   31.7339   47.8727 C   0  0  0  0  0  0  0  0  0  0  0  0
   59.6056   32.4746   46.7101 N   0  0  0  0  0  0  0  0  0  0  0  0
   60.2607   33.7942   46.5640 C   0  0  0  0  0  0  0  0  0  0  0  0
   59.5684   34.6827   45.5048 C   0  0  0  0  0  0  0  0  0  0  0  0
   58.6323   33.8677   44.6074 C   0  0  0  0  0  0  0  0  0  0  0  0
   57.5776   33.1258   45.4435 C   0  0  0  0  0  0  0  0  0  0  0  0
   58.1404   32.6244   46.7887 C   0  0  0  0  0  0  0  0  0  0  0  0
  1  2  2  0
  2  3  1  0
  3  4  2  0
  4 21  1  0
 21 22  1  0
 22 23  1  0
 23 24  2  0
 23 25  1  0
 25 26  1  0
 26 27  1  0
  3  5  1  0
  5  6  2  0
  6  8  1  0
  8  9  2  0
  8 10  1  0
 10 11  1  0
 11 12  2  0
 12 13  1  0
 13 14  2  0
 14 15  1  0
 15 16  2  0
 16 17  1  0
 17 18  2  0
 18 19  1  0
 19 20  2  0
  6  7  1  0
  7 28  1  0
 28 29  1  0
 29 30  1  0
 30 31  1  0
 31 32  1  0
 32 33  1  0
 33 34  1  0
 34 35  1  0
  7  2  1  0
 35 30  1  0
 26 21  2  0
 19 10  1  0
 18 13  1  0
M  CHG  2  22  -1  25  -1
M  END
>  <UniqueID>  (39) 
54

>  <SMILES>  (39) 
C=c1c(=Cc2[n-]c(=O)[n-]c2O)cc(C(=O)n2ccc3ccccc3c2=O)n1CCN1CCCCC1

>  <Energy>  (39) 
154.04557961518134

>  <Genealogy>  (39) 
C=c1c(=Cc2[n-]c(=O)[n-]c2O)cc(C(=O)n2ccc3ccccc3c2=O)n1CCN1CCCCC1 (protonated)
C=c1c(=Cc2[n-]c(=O)[n-]c2O)cc(C(=O)n2ccc3ccccc3c2=O)n1CCN1CCCCC1 (3D coordinates assigned)
C=c1c(=Cc2[n-]c(=O)[n-]c2O)cc(C(=O)n2ccc3ccccc3c2=O)n1CCN1CCCCC1 (nonaromatic ring conformer: 154.04557961518134 kcal/mol)

>  <smiles>  (39) 
C=c1c(=Cc2[nH]c(=O)[nH]c2O)cc(C(=O)n2ccc3ccccc3c2=O)n1CCN1CCCCC1

>  <score_type>  (39) 
oracle

>  <origin>  (39) 
adg

>  <m_score__min__energy>  (39) 
-14.23

>  <m_primary>  (39) 
energy

>  <minimizedAffinity>  (39) 
-9.95070

>  <minimizedRMSD>  (39) 
0.49501

>  <CNNscore>  (39) 
0.6427915692

>  <CNNaffinity>  (39) 
7.4972991943

>  <CNN_VS>  (39) 
4.8192005157

>  <CNNaffinity_variance>  (39) 
0.0165225398

$$$$
5:0
     RDKit          3D

 38 42  0  0  0  0  0  0  0  0999 V2000
   57.7990   26.4488   43.4504 C   0  0  0  0  0  0  0  0  0  0  0  0
   58.3406   26.0979   44.6275 C   0  0  0  0  0  0  0  0  0  0  0  0
   57.9936   24.9827   45.4082 C   0  0  0  0  0  0  0  0  0  0  0  0
   57.2136   23.9161   45.1393 C   0  0  0  0  0  0  0  0  0  0  0  0
   58.6509   25.1358   46.6141 C   0  0  0  0  0  0  0  0  0  0  0  0
   59.4244   26.2726   46.5125 C   0  0  0  0  0  0  0  0  0  0  0  0
   59.2401   26.8672   45.3040 N   0  0  0  0  0  0  0  0  0  0  0  0
   55.7888   23.7786   45.4783 C   0  0  0  0  0  0  0  0  0  0  0  0
   55.0954   22.6380   45.3162 N   0  0  0  0  0  0  0  0  0  0  0  0
   53.8268   22.9984   45.6092 C   0  0  0  0  0  0  0  0  0  0  0  0
   52.8685   22.1833   45.5808 O   0  0  0  0  0  0  0  0  0  0  0  0
   53.6625   24.3027   45.9158 N   0  0  0  0  0  0  0  0  0  0  0  0
   54.9104   24.7891   45.8118 C   0  0  0  0  0  0  0  0  0  0  0  0
   55.2389   26.1276   45.9886 O   0  0  0  0  0  0  0  0  0  0  0  0
   60.3437   26.7173   47.5781 C   0  0  0  0  0  0  0  0  0  0  0  0
   61.5873   26.5703   47.4490 O   0  0  0  0  0  0  0  0  0  0  0  0
   59.8065   27.2479   48.7932 N   0  0  0  0  0  0  0  0  0  0  0  0
   60.3935   28.3660   49.5278 C   0  0  0  0  0  0  0  0  0  0  0  0
   60.1861   29.6645   48.7971 C   0  0  0  0  0  0  0  0  0  0  0  0
   61.1881   30.1781   47.9589 C   0  0  0  0  0  0  0  0  0  0  0  0
   60.9933   31.3838   47.2812 C   0  0  0  0  0  0  0  0  0  0  0  0
   59.7916   32.0982   47.4268 C   0  0  0  0  0  0  0  0  0  0  0  0
   58.7822   31.5734   48.2496 C   0  0  0  0  0  0  0  0  0  0  0  0
   58.9824   30.3721   48.9375 C   0  0  0  0  0  0  0  0  0  0  0  0
   59.5892   33.3408   46.7290 N   0  0  0  0  0  0  0  0  0  0  0  0
   59.3345   33.4577   45.3011 C   0  0  0  0  0  0  0  0  0  0  0  0
   59.3930   34.9634   44.9757 C   0  0  0  0  0  0  0  0  0  0  0  0
   59.5153   35.7165   46.3076 C   0  0  0  0  0  0  0  0  0  0  0  0
   59.6588   34.6352   47.3018 C   0  0  0  0  0  0  0  0  0  0  0  0
   59.7680   34.8408   48.5407 O   0  0  0  0  0  0  0  0  0  0  0  0
   59.7183   28.2071   44.9120 C   0  0  0  0  0  0  0  0  0  0  0  0
   58.6588   29.2845   45.1913 C   0  0  0  0  0  0  0  0  0  0  0  0
   58.2996   30.0082   43.9512 N   0  0  0  0  0  0  0  0  0  0  0  0
   57.2536   29.3149   43.1660 C   0  0  0  0  0  0  0  0  0  0  0  0
   55.8335   29.8147   43.5033 C   0  0  0  0  0  0  0  0  0  0  0  0
   55.7856   30.3234   44.8182 O   0  0  0  0  0  0  0  0  0  0  0  0
   56.5488   31.5157   44.9066 C   0  0  0  0  0  0  0  0  0  0  0  0
   57.9251   31.4116   44.2074 C   0  0  0  0  0  0  0  0  0  0  0  0
  1  2  2  0
  2  3  1  0
  3  4  2  0
  4  8  1  0
  8  9  1  0
  9 10  1  0
 10 11  2  0
 10 12  1  0
 12 13  1  0
 13 14  1  0
  3  5  1  0
  5  6  2  0
  6 15  1  0
 15 16  2  0
 15 17  1  0
 17 18  1  0
 18 19  1  0
 19 20  2  0
 20 21  1  0
 21 22  2  0
 22 25  1  0
 25 26  1  0
 26 27  1  0
 27 28  1  0
 28 29  1  0
 29 30  2  0
 22 23  1  0
 23 24  2  0
  6  7  1  0
  7 31  1  0
 31 32  1  0
 32 33  1  0
 33 34  1  0
 34 35  1  0
 35 36  1  0
 36 37  1  0
 37 38  1  0
  7  2  1  0
 38 33  1  0
 13  8  2  0
 24 19  1  0
 29 25  1  0
M  CHG  3   9  -1  12  -1  17  -1
M  END
>  <UniqueID>  (40) 
6

>  <SMILES>  (40) 
C=c1c(=Cc2[n-]c(=O)[n-]c2O)cc(C(=O)[N-]Cc2ccc(N3CCCC3=O)cc2)n1CCN1CCOCC1

>  <Energy>  (40) 
159.25309752284616

>  <Genealogy>  (40) 
C=c1c(=Cc2[n-]c(=O)[n-]c2O)cc(C(=O)[N-]Cc2ccc(N3CCCC3=O)cc2)n1CCN1CCOCC1 (protonated)
C=c1c(=Cc2[n-]c(=O)[n-]c2O)cc(C(=O)[N-]Cc2ccc(N3CCCC3=O)cc2)n1CCN1CCOCC1 (3D coordinates assigned)
C=c1c(=Cc2[n-]c(=O)[n-]c2O)cc(C(=O)[N-]Cc2ccc(N3CCCC3=O)cc2)n1CCN1CCOCC1 (nonaromatic ring conformer: 159.25309752284616 kcal/mol)

>  <smiles>  (40) 
C=c1c(=Cc2[nH]c(=O)[nH]c2O)cc(C(=O)NCc2ccc(N3CCCC3=O)cc2)n1CCN1CCOCC1

>  <score_type>  (40) 
oracle

>  <origin>  (40) 
adg

>  <m_score__min__energy>  (40) 
-15.380000000000001

>  <m_primary>  (40) 
energy

>  <minimizedAffinity>  (40) 
-4.56000

>  <minimizedRMSD>  (40) 
0.48749

>  <CNNscore>  (40) 
0.1447331309

>  <CNNaffinity>  (40) 
6.8530921936

>  <CNN_VS>  (40) 
0.9918695092

>  <CNNaffinity_variance>  (40) 
0.1496651918

$$$$
85:0
     RDKit          3D

 32 35  0  0  0  0  0  0  0  0999 V2000
   60.7648   29.2028   46.3620 C   0  0  0  0  0  0  0  0  0  0  0  0
   57.5776   25.7947   44.6887 C   0  0  0  0  0  0  0  0  0  0  0  0
   58.1644   26.9849   44.9494 C   0  0  0  0  0  0  0  0  0  0  0  0
   57.7335   28.2380   44.5369 C   0  0  0  0  0  0  0  0  0  0  0  0
   58.6462   29.1532   45.0195 C   0  0  0  0  0  0  0  0  0  0  0  0
   58.5078   30.6372   44.8703 C   0  0  0  0  0  0  0  0  0  0  0  0
   59.6244   28.5303   45.7187 N   0  0  0  0  0  0  0  0  0  0  0  0
   59.3305   27.2025   45.6976 C   0  0  0  0  0  0  0  0  0  0  0  0
   60.0619   26.2531   46.3095 C   0  0  0  0  0  0  0  0  0  0  0  0
   54.8191   25.9802   45.9608 O   0  0  0  0  0  0  0  0  0  0  0  0
   55.7652   25.0129   46.2816 C   0  0  0  0  0  0  0  0  0  0  0  0
   55.5926   24.0792   47.2336 N   0  0  0  0  0  0  0  0  0  0  0  0
   56.7558   23.3990   47.1950 C   0  0  0  0  0  0  0  0  0  0  0  0
   56.9966   22.4248   47.9540 O   0  0  0  0  0  0  0  0  0  0  0  0
   57.6448   23.8500   46.2857 N   0  0  0  0  0  0  0  0  0  0  0  0
   57.0041   24.8762   45.6977 C   0  0  0  0  0  0  0  0  0  0  0  0
   60.5161   29.4046   47.8334 C   0  0  0  0  0  0  0  0  0  0  0  0
   60.3969   28.2991   48.6890 C   0  0  0  0  0  0  0  0  0  0  0  0
   60.1086   28.4838   50.0433 C   0  0  0  0  0  0  0  0  0  0  0  0
   59.9277   29.7702   50.5535 C   0  0  0  0  0  0  0  0  0  0  0  0
   60.0297   30.8870   49.7070 C   0  0  0  0  0  0  0  0  0  0  0  0
   60.3389   30.6959   48.3547 C   0  0  0  0  0  0  0  0  0  0  0  0
   59.8095   32.2193   50.1821 N   0  0  0  0  0  0  0  0  0  0  0  0
   59.9091   33.6447   49.1969 S   0  0  0  0  0  0  0  0  0  0  0  0
   59.1752   33.4217   47.9038 O   0  0  0  0  0  0  0  0  0  0  0  0
   59.2624   34.7843   49.9338 O   0  0  0  0  0  0  0  0  0  0  0  0
   61.6317   34.0516   48.8788 C   0  0  0  0  0  0  0  0  0  0  0  0
   62.5222   33.7579   50.1063 C   0  0  0  0  0  0  0  0  0  0  0  0
   63.2589   32.4162   49.9426 C   0  0  0  0  0  0  0  0  0  0  0  0
   64.1001   32.3446   48.7943 O   0  0  0  0  0  0  0  0  0  0  0  0
   63.6612   33.1357   47.6960 C   0  0  0  0  0  0  0  0  0  0  0  0
   62.1360   33.3099   47.6271 C   0  0  0  0  0  0  0  0  0  0  0  0
 10 11  1  0
 11 12  1  0
 12 13  1  0
 13 14  2  0
 13 15  1  0
 15 16  1  0
 16  2  1  0
  2  3  2  0
  3  4  1  0
  4  5  2  0
  5  6  1  0
  5  7  1  0
  7  1  1  0
  1 17  1  0
 17 18  2  0
 18 19  1  0
 19 20  2  0
 20 21  1  0
 21 23  1  0
 23 24  1  0
 24 25  2  0
 24 26  2  0
 24 27  1  0
 27 28  1  0
 28 29  1  0
 29 30  1  0
 30 31  1  0
 31 32  1  0
 21 22  2  0
  7  8  1  0
  8  9  2  0
 16 11  2  0
  8  3  1  0
 22 17  1  0
 32 27  1  0
M  CHG  3  12  -1  15  -1  23  -1
M  END
>  <UniqueID>  (41) 
84

>  <SMILES>  (41) 
C=c1/c(=C/c2[n-]c(=O)[n-]c2O)cc(C)n1Cc1cccc([N-]S(=O)(=O)C2CCOCC2)c1

>  <Energy>  (41) 
128.53274690568804

>  <Genealogy>  (41) 
C=c1c(=Cc2[n-]c(=O)[n-]c2O)cc(C)n1Cc1cccc([N-]S(=O)(=O)C2CCOCC2)c1 (protonated)
C=c1/c(=C/c2[n-]c(=O)[n-]c2O)cc(C)n1Cc1cccc([N-]S(=O)(=O)C2CCOCC2)c1 (cis-trans isomerization)
C=c1/c(=C/c2[n-]c(=O)[n-]c2O)cc(C)n1Cc1cccc([N-]S(=O)(=O)C2CCOCC2)c1 (3D coordinates assigned)
C=c1/c(=C/c2[n-]c(=O)[n-]c2O)cc(C)n1Cc1cccc([N-]S(=O)(=O)C2CCOCC2)c1 (nonaromatic ring conformer: 128.53274690568804 kcal/mol)

>  <smiles>  (41) 
C=c1c(=Cc2[nH]c(=O)[nH]c2O)cc(C)n1Cc1cccc(NS(=O)(=O)C2CCOCC2)c1

>  <score_type>  (41) 
oracle

>  <origin>  (41) 
adg

>  <m_score__min__energy>  (41) 
-15.58

>  <m_primary>  (41) 
energy

>  <minimizedAffinity>  (41) 
-8.00962

>  <minimizedRMSD>  (41) 
0.48163

>  <CNNscore>  (41) 
0.2227318287

>  <CNNaffinity>  (41) 
6.7863354683

>  <CNN_VS>  (41) 
1.5115329027

>  <CNNaffinity_variance>  (41) 
0.0575246513

$$$$
42:0
     RDKit          3D

 37 40  0  0  0  0  0  0  0  0999 V2000
   59.0423   29.6801   48.9204 C   0  0  0  0  0  0  0  0  0  0  0  0
   58.2658   29.9757   51.1547 O   0  0  0  0  0  0  0  0  0  0  0  0
   58.7431   30.5149   50.1203 C   0  0  0  0  0  0  0  0  0  0  0  0
   59.0378   31.9177   50.0911 N   0  0  0  0  0  0  0  0  0  0  0  0
   59.5079   32.6667   48.9601 C   0  0  0  0  0  0  0  0  0  0  0  0
   60.6880   33.4316   49.0080 C   0  0  0  0  0  0  0  0  0  0  0  0
   61.0986   34.1606   47.8895 C   0  0  0  0  0  0  0  0  0  0  0  0
   60.3322   34.1466   46.7222 C   0  0  0  0  0  0  0  0  0  0  0  0
   59.1428   33.4080   46.6698 C   0  0  0  0  0  0  0  0  0  0  0  0
   58.7305   32.6793   47.7944 C   0  0  0  0  0  0  0  0  0  0  0  0
   58.1698   33.3950   45.1961 S   0  0  0  0  0  0  0  0  0  0  0  0
   57.1578   34.5044   45.2634 O   0  0  0  0  0  0  0  0  0  0  0  0
   59.0626   33.6519   44.0136 O   0  0  0  0  0  0  0  0  0  0  0  0
   57.3449   31.8714   44.9745 N   0  0  0  0  0  0  0  0  0  0  0  0
   57.2497   31.5402   43.5452 C   0  0  0  0  0  0  0  0  0  0  0  0
   56.5338   30.1855   43.3626 C   0  0  0  0  0  0  0  0  0  0  0  0
   56.2355   29.5694   44.6032 O   0  0  0  0  0  0  0  0  0  0  0  0
   57.4200   29.4248   45.3620 C   0  0  0  0  0  0  0  0  0  0  0  0
   58.0437   30.7967   45.6962 C   0  0  0  0  0  0  0  0  0  0  0  0
   60.1381   28.7703   49.2271 N   0  0  0  0  0  0  0  0  0  0  0  0
   60.2502   27.4271   48.7415 C   0  0  0  0  0  0  0  0  0  0  0  0
   60.9552   26.6061   49.3844 O   0  0  0  0  0  0  0  0  0  0  0  0
   59.5981   26.9854   47.4920 C   0  0  0  0  0  0  0  0  0  0  0  0
   60.0875   27.3938   46.2415 C   0  0  0  0  0  0  0  0  0  0  0  0
   59.4507   26.9838   45.0674 C   0  0  0  0  0  0  0  0  0  0  0  0
   58.3120   26.1766   45.1314 C   0  0  0  0  0  0  0  0  0  0  0  0
   57.7970   25.7850   46.3743 C   0  0  0  0  0  0  0  0  0  0  0  0
   58.4398   26.1943   47.5515 C   0  0  0  0  0  0  0  0  0  0  0  0
   56.3422   24.7865   46.4556 S   0  0  0  0  0  0  0  0  0  0  0  0
   55.1445   25.6256   46.1044 O   0  0  0  0  0  0  0  0  0  0  0  0
   56.1654   24.2880   47.8623 O   0  0  0  0  0  0  0  0  0  0  0  0
   56.4305   23.4223   45.3684 N   0  0  0  0  0  0  0  0  0  0  0  0
   55.9059   23.7837   44.0396 C   0  0  0  0  0  0  0  0  0  0  0  0
   56.2027   22.6712   43.0141 C   0  0  0  0  0  0  0  0  0  0  0  0
   56.6338   21.4872   43.6589 O   0  0  0  0  0  0  0  0  0  0  0  0
   57.8690   21.7188   44.3131 C   0  0  0  0  0  0  0  0  0  0  0  0
   57.8147   22.9424   45.2534 C   0  0  0  0  0  0  0  0  0  0  0  0
  2  3  2  0
  3  1  1  0
  1 20  1  0
 20 21  1  0
 21 22  2  0
 21 23  1  0
 23 24  2  0
 24 25  1  0
 25 26  2  0
 26 27  1  0
 27 29  1  0
 29 30  2  0
 29 31  2  0
 29 32  1  0
 32 33  1  0
 33 34  1  0
 34 35  1  0
 35 36  1  0
 36 37  1  0
 27 28  2  0
  3  4  1  0
  4  5  1  0
  5  6  2  0
  6  7  1  0
  7  8  2  0
  8  9  1  0
  9 11  1  0
 11 12  2  0
 11 13  2  0
 11 14  1  0
 14 15  1  0
 15 16  1  0
 16 17  1  0
 17 18  1  0
 18 19  1  0
  9 10  2  0
 28 23  1  0
 10  5  1  0
 37 32  1  0
 19 14  1  0
M  CHG  2   4  -1  20  -1
M  END
>  <UniqueID>  (42) 
43

>  <SMILES>  (42) 
O=C(C[N-]C(=O)c1cccc(S(=O)(=O)N2CCOCC2)c1)[N-]c1cccc(S(=O)(=O)N2CCOCC2)c1

>  <Energy>  (42) 
85.17000746667351

>  <Genealogy>  (42) 
O=C(C[N-]C(=O)c1cccc(S(=O)(=O)N2CCOCC2)c1)[N-]c1cccc(S(=O)(=O)N2CCOCC2)c1 (protonated)
O=C(C[N-]C(=O)c1cccc(S(=O)(=O)N2CCOCC2)c1)[N-]c1cccc(S(=O)(=O)N2CCOCC2)c1 (3D coordinates assigned)
O=C(C[N-]C(=O)c1cccc(S(=O)(=O)N2CCOCC2)c1)[N-]c1cccc(S(=O)(=O)N2CCOCC2)c1 (nonaromatic ring conformer: 85.17000746667351 kcal/mol)

>  <smiles>  (42) 
O=C(CNC(=O)c1cccc(S(=O)(=O)N2CCOCC2)c1)Nc1cccc(S(=O)(=O)N2CCOCC2)c1

>  <score_type>  (42) 
oracle

>  <origin>  (42) 
adg

>  <m_score__min__energy>  (42) 
-14.31

>  <m_primary>  (42) 
energy

>  <minimizedAffinity>  (42) 
-7.50488

>  <minimizedRMSD>  (42) 
0.46797

>  <CNNscore>  (42) 
0.5452830791

>  <CNNaffinity>  (42) 
6.5288472176

>  <CNN_VS>  (42) 
3.5600697994

>  <CNNaffinity_variance>  (42) 
0.1744071245

$$$$
39:0
     RDKit          3D

 33 36  0  0  0  0  0  0  0  0999 V2000
   59.7147   27.7917   45.4302 C   0  0  0  0  0  0  0  0  0  0  0  0
   60.3956   27.7638   44.3676 O   0  0  0  0  0  0  0  0  0  0  0  0
   59.7384   28.9677   46.2692 N   0  0  0  0  0  0  0  0  0  0  0  0
   60.8724   29.9014   46.1491 C   0  0  0  0  0  0  0  0  0  0  0  0
   60.6475   31.1942   46.9434 C   0  0  0  0  0  0  0  0  0  0  0  0
   60.1154   30.8968   48.2820 N   0  0  0  0  0  0  0  0  0  0  0  0
   60.5457   31.6454   49.4344 C   0  0  0  0  0  0  0  0  0  0  0  0
   60.6185   31.0713   50.5564 O   0  0  0  0  0  0  0  0  0  0  0  0
   59.0744   29.8737   48.4583 C   0  0  0  0  0  0  0  0  0  0  0  0
   58.5881   29.3294   47.1115 C   0  0  0  0  0  0  0  0  0  0  0  0
   57.5569   24.2347   47.9082 C   0  0  0  0  0  0  0  0  0  0  0  0
   57.8688   25.0470   46.8845 C   0  0  0  0  0  0  0  0  0  0  0  0
   57.5667   24.8486   45.5260 C   0  0  0  0  0  0  0  0  0  0  0  0
   56.7608   23.9561   44.9158 C   0  0  0  0  0  0  0  0  0  0  0  0
   58.2723   25.8154   44.8298 C   0  0  0  0  0  0  0  0  0  0  0  0
   58.9013   26.6081   45.7680 C   0  0  0  0  0  0  0  0  0  0  0  0
   58.6681   26.1369   47.0170 N   0  0  0  0  0  0  0  0  0  0  0  0
   59.2867   26.6170   48.2588 C   0  0  0  0  0  0  0  0  0  0  0  0
   55.3115   23.8201   45.1373 C   0  0  0  0  0  0  0  0  0  0  0  0
   54.6286   22.6630   45.0306 N   0  0  0  0  0  0  0  0  0  0  0  0
   53.3884   22.9928   45.4495 C   0  0  0  0  0  0  0  0  0  0  0  0
   52.4410   22.1633   45.4830 O   0  0  0  0  0  0  0  0  0  0  0  0
   53.2456   24.2777   45.8423 N   0  0  0  0  0  0  0  0  0  0  0  0
   54.4743   24.7851   45.6518 C   0  0  0  0  0  0  0  0  0  0  0  0
   54.8147   26.1048   45.9425 O   0  0  0  0  0  0  0  0  0  0  0  0
   60.8437   33.1211   49.3544 C   0  0  0  0  0  0  0  0  0  0  0  0
   59.5665   33.9419   49.1271 C   0  0  0  0  0  0  0  0  0  0  0  0
   59.1732   33.9641   47.6689 C   0  0  0  0  0  0  0  0  0  0  0  0
   59.9574   34.6573   46.7315 C   0  0  0  0  0  0  0  0  0  0  0  0
   59.5694   34.7107   45.3882 C   0  0  0  0  0  0  0  0  0  0  0  0
   58.3983   34.0698   44.9734 C   0  0  0  0  0  0  0  0  0  0  0  0
   57.6088   33.3850   45.8997 C   0  0  0  0  0  0  0  0  0  0  0  0
   57.9929   33.3329   47.2440 C   0  0  0  0  0  0  0  0  0  0  0  0
 11 12  2  0
 12 13  1  0
 13 14  2  0
 14 19  1  0
 19 20  1  0
 20 21  1  0
 21 22  2  0
 21 23  1  0
 23 24  1  0
 24 25  1  0
 13 15  1  0
 15 16  2  0
 16  1  1  0
  1  2  2  0
  1  3  1  0
  3  4  1  0
  4  5  1  0
  5  6  1  0
  6  7  1  0
  7  8  2  0
  7 26  1  0
 26 27  1  0
 27 28  1  0
 28 29  2  0
 29 30  1  0
 30 31  2  0
 31 32  1  0
 32 33  2  0
  6  9  1  0
  9 10  1  0
 16 17  1  0
 17 18  1  0
 17 12  1  0
 24 19  2  0
 10  3  1  0
 33 28  1  0
M  CHG  2  20  -1  23  -1
M  END
>  <UniqueID>  (43) 
35

>  <SMILES>  (43) 
C=c1c(=Cc2[n-]c(=O)[n-]c2O)cc(C(=O)N2CCN(C(=O)CCc3ccccc3)CC2)n1C

>  <Energy>  (43) 
132.64043241666866

>  <Genealogy>  (43) 
C=c1c(=Cc2[n-]c(=O)[n-]c2O)cc(C(=O)N2CCN(C(=O)CCc3ccccc3)CC2)n1C (protonated)
C=c1c(=Cc2[n-]c(=O)[n-]c2O)cc(C(=O)N2CCN(C(=O)CCc3ccccc3)CC2)n1C (3D coordinates assigned)
C=c1c(=Cc2[n-]c(=O)[n-]c2O)cc(C(=O)N2CCN(C(=O)CCc3ccccc3)CC2)n1C (nonaromatic ring conformer: 132.64043241666866 kcal/mol)

>  <smiles>  (43) 
C=c1c(=Cc2[nH]c(=O)[nH]c2O)cc(C(=O)N2CCN(C(=O)CCc3ccccc3)CC2)n1C

>  <score_type>  (43) 
oracle

>  <origin>  (43) 
adg

>  <m_score__min__energy>  (43) 
-14.48

>  <m_primary>  (43) 
energy

>  <minimizedAffinity>  (43) 
-6.70076

>  <minimizedRMSD>  (43) 
0.34108

>  <CNNscore>  (43) 
0.1075126231

>  <CNNaffinity>  (43) 
6.0657424927

>  <CNN_VS>  (43) 
0.6521438956

>  <CNNaffinity_variance>  (43) 
0.2878095210

$$$$
43:0
     RDKit          3D

 36 39  0  0  0  0  0  0  0  0999 V2000
   58.4956   31.8325   52.1630 N   0  0  0  0  0  0  0  0  0  0  0  0
   59.0004   32.0555   50.9860 C   0  0  0  0  0  0  0  0  0  0  0  0
   58.7804   31.1942   49.9537 N   0  0  0  0  0  0  0  0  0  0  0  0
   59.2992   31.4143   48.7160 C   0  0  0  0  0  0  0  0  0  0  0  0
   60.1015   32.5479   48.5101 C   0  0  0  0  0  0  0  0  0  0  0  0
   60.3155   33.4215   49.5746 C   0  0  0  0  0  0  0  0  0  0  0  0
   59.7613   33.1622   50.7864 N   0  0  0  0  0  0  0  0  0  0  0  0
   59.0325   30.4740   47.6556 N   0  0  0  0  0  0  0  0  0  0  0  0
   59.0076   29.0235   47.9065 C   0  0  0  0  0  0  0  0  0  0  0  0
   59.7545   28.2500   46.8033 C   0  0  0  0  0  0  0  0  0  0  0  0
   59.5804   28.8392   45.3786 C   0  0  0  0  0  0  0  0  0  0  0  0
   58.4390   29.8667   45.3188 C   0  0  0  0  0  0  0  0  0  0  0  0
   58.7040   30.9955   46.3194 C   0  0  0  0  0  0  0  0  0  0  0  0
   59.3584   27.7641   44.4055 N   0  0  0  0  0  0  0  0  0  0  0  0
   58.1660   26.9615   44.4292 C   0  0  0  0  0  0  0  0  0  0  0  0
   57.4220   26.9788   45.4469 O   0  0  0  0  0  0  0  0  0  0  0  0
   57.7842   26.0900   43.2990 C   0  0  0  0  0  0  0  0  0  0  0  0
   57.2647   24.8641   43.4599 C   0  0  0  0  0  0  0  0  0  0  0  0
   56.8689   24.2977   44.7751 C   0  0  0  0  0  0  0  0  0  0  0  0
   55.5010   24.2209   45.0867 C   0  0  0  0  0  0  0  0  0  0  0  0
   55.0803   23.7149   46.3202 C   0  0  0  0  0  0  0  0  0  0  0  0
   56.0204   23.2843   47.2590 C   0  0  0  0  0  0  0  0  0  0  0  0
   55.6089   22.7980   48.4548 F   0  0  0  0  0  0  0  0  0  0  0  0
   57.3830   23.3678   46.9681 C   0  0  0  0  0  0  0  0  0  0  0  0
   57.8096   23.8749   45.7367 C   0  0  0  0  0  0  0  0  0  0  0  0
   57.1796   32.2940   52.6063 C   0  0  0  0  0  0  0  0  0  0  0  0
   53.9919   30.2505   52.1574 C   0  0  0  0  0  0  0  0  0  0  0  0
   54.3630   29.0274   52.7311 C   0  0  0  0  0  0  0  0  0  0  0  0
   55.6451   28.8625   53.2621 C   0  0  0  0  0  0  0  0  0  0  0  0
   56.5640   29.9177   53.2221 C   0  0  0  0  0  0  0  0  0  0  0  0
   56.2030   31.1466   52.6505 C   0  0  0  0  0  0  0  0  0  0  0  0
   54.9161   31.3029   52.1098 C   0  0  0  0  0  0  0  0  0  0  0  0
   52.1014   32.1280   51.1503 N   0  0  0  0  0  0  0  0  0  0  0  0
   52.3851   30.4522   51.4612 S   0  0  0  0  0  0  0  0  0  0  0  0
   51.3456   29.9352   52.4188 O   0  0  0  0  0  0  0  0  0  0  0  0
   52.2834   29.6775   50.1768 O   0  0  0  0  0  0  0  0  0  0  0  0
 33 34  1  0
 34 35  2  0
 34 36  2  0
 34 27  1  0
 27 28  2  0
 28 29  1  0
 29 30  2  0
 30 31  1  0
 31 26  1  0
 26  1  1  0
  1  2  2  0
  2  3  1  0
  3  4  2  0
  4  8  1  0
  8  9  1  0
  9 10  1  0
 10 11  1  0
 11 14  1  0
 14 15  1  0
 15 16  2  0
 15 17  1  0
 17 18  2  0
 18 19  1  0
 19 20  2  0
 20 21  1  0
 21 22  2  0
 22 23  1  0
 22 24  1  0
 24 25  2  0
 11 12  1  0
 12 13  1  0
  4  5  1  0
  5  6  2  0
  6  7  1  0
 31 32  2  0
 32 27  1  0
  7  2  1  0
 13  8  1  0
 25 19  1  0
M  CHG  2   7  -1  33  -1
M  END
>  <UniqueID>  (44) 
41

>  <SMILES>  (44) 
[NH-]S(=O)(=O)c1cccc(CN=c2nc(N3CCC(NC(=O)/C=C/c4ccc(F)cc4)CC3)cc[n-]2)c1

>  <Energy>  (44) 
69.12333651750336

>  <Genealogy>  (44) 
[NH-]S(=O)(=O)c1cccc(CN=c2nc(N3CCC(NC(=O)C=Cc4ccc(F)cc4)CC3)cc[n-]2)c1 (protonated)
[NH-]S(=O)(=O)c1cccc(CN=c2nc(N3CCC(NC(=O)/C=C/c4ccc(F)cc4)CC3)cc[n-]2)c1 (cis-trans isomerization)
[NH-]S(=O)(=O)c1cccc(CN=c2nc(N3CCC(NC(=O)/C=C/c4ccc(F)cc4)CC3)cc[n-]2)c1 (3D coordinates assigned)
[NH-]S(=O)(=O)c1cccc(CN=c2nc(N3CCC(NC(=O)/C=C/c4ccc(F)cc4)CC3)cc[n-]2)c1 (nonaromatic ring conformer: 69.12333651750336 kcal/mol)

>  <smiles>  (44) 
NS(=O)(=O)c1cccc(CN=c2nc(N3CCC(NC(=O)C=Cc4ccc(F)cc4)CC3)cc[nH]2)c1

>  <score_type>  (44) 
oracle

>  <origin>  (44) 
adg

>  <m_score__min__energy>  (44) 
-14.6

>  <m_primary>  (44) 
energy

>  <minimizedAffinity>  (44) 
-7.25547

>  <minimizedRMSD>  (44) 
0.49850

>  <CNNscore>  (44) 
0.0541037396

>  <CNNaffinity>  (44) 
6.0834765434

>  <CNN_VS>  (44) 
0.3291388452

>  <CNNaffinity_variance>  (44) 
0.2759682238

$$$$
8:0
     RDKit          3D

 29 31  0  0  0  0  0  0  0  0999 V2000
   58.8183   26.3082   46.7340 C   0  0  0  0  0  0  0  0  0  0  0  0
   57.6183   27.0305   46.7729 C   0  0  0  0  0  0  0  0  0  0  0  0
   57.6139   28.4082   46.5408 C   0  0  0  0  0  0  0  0  0  0  0  0
   58.8082   29.0774   46.2374 C   0  0  0  0  0  0  0  0  0  0  0  0
   60.0091   28.3545   46.1813 C   0  0  0  0  0  0  0  0  0  0  0  0
   60.0156   26.9759   46.4128 C   0  0  0  0  0  0  0  0  0  0  0  0
   61.1811   26.2951   46.2826 F   0  0  0  0  0  0  0  0  0  0  0  0
   58.8022   30.5343   46.0009 C   0  0  0  0  0  0  0  0  0  0  0  0
   59.5542   31.3526   46.8600 C   0  0  0  0  0  0  0  0  0  0  0  0
   59.6046   32.7322   46.6611 C   0  0  0  0  0  0  0  0  0  0  0  0
   58.9045   33.3104   45.6037 C   0  0  0  0  0  0  0  0  0  0  0  0
   58.1427   32.5133   44.7474 C   0  0  0  0  0  0  0  0  0  0  0  0
   58.0704   31.1233   44.9403 C   0  0  0  0  0  0  0  0  0  0  0  0
   57.0421   30.1696   43.8583 S   0  0  0  0  0  0  0  0  0  0  0  0
   55.5191   29.8646   44.6149 N   0  0  0  0  0  0  0  0  0  0  0  0
   57.7061   28.8579   43.5465 O   0  0  0  0  0  0  0  0  0  0  0  0
   56.8245   30.9060   42.5661 O   0  0  0  0  0  0  0  0  0  0  0  0
   58.7801   24.8972   46.9823 N   0  0  0  0  0  0  0  0  0  0  0  0
   57.6669   24.0244   46.7403 C   0  0  0  0  0  0  0  0  0  0  0  0
   57.0962   23.4896   47.7274 O   0  0  0  0  0  0  0  0  0  0  0  0
   55.9709   23.7413   44.9265 C   0  0  0  0  0  0  0  0  0  0  0  0
   57.2507   23.6508   45.3647 C   0  0  0  0  0  0  0  0  0  0  0  0
   58.2914   23.0849   44.4227 C   0  0  0  0  0  0  0  0  0  0  0  0
   57.7905   21.7960   43.7501 C   0  0  0  0  0  0  0  0  0  0  0  0
   56.3106   21.8583   43.3015 C   0  0  0  0  0  0  0  0  0  0  0  0
   55.6542   23.2273   43.5399 C   0  0  0  0  0  0  0  0  0  0  0  0
   54.8358   25.8214   45.8259 N   0  0  0  0  0  0  0  0  0  0  0  0
   54.8884   24.4010   45.6996 C   0  0  0  0  0  0  0  0  0  0  0  0
   53.9715   23.7054   46.2125 O   0  0  0  0  0  0  0  0  0  0  0  0
 27 28  1  0
 28 29  2  0
 28 21  1  0
 21 22  2  0
 22 19  1  0
 19 20  2  0
 19 18  1  0
 18  1  1  0
  1  2  2  0
  2  3  1  0
  3  4  2  0
  4  8  1  0
  8  9  2  0
  9 10  1  0
 10 11  2  0
 11 12  1  0
 12 13  2  0
 13 14  1  0
 14 15  1  0
 14 16  2  0
 14 17  2  0
  4  5  1  0
  5  6  2  0
  6  7  1  0
 22 23  1  0
 23 24  1  0
 24 25  1  0
 25 26  1  0
 26 21  1  0
  6  1  1  0
 13  8  1  0
M  CHG  3  15  -1  18  -1  27  -1
M  END
>  <UniqueID>  (45) 
9

>  <SMILES>  (45) 
[NH-]C(=O)C1=C(C(=O)[N-]c2ccc(-c3ccccc3S([NH-])(=O)=O)cc2F)CCCC1

>  <Energy>  (45) 
72.30541971659406

>  <Genealogy>  (45) 
[NH-]C(=O)C1=C(C(=O)[N-]c2ccc(-c3ccccc3S([NH-])(=O)=O)cc2F)CCCC1 (protonated)
[NH-]C(=O)C1=C(C(=O)[N-]c2ccc(-c3ccccc3S([NH-])(=O)=O)cc2F)CCCC1 (3D coordinates assigned)
[NH-]C(=O)C1=C(C(=O)[N-]c2ccc(-c3ccccc3S([NH-])(=O)=O)cc2F)CCCC1 (nonaromatic ring conformer: 72.30541971659406 kcal/mol)

>  <smiles>  (45) 
NC(=O)C1=C(C(=O)Nc2ccc(-c3ccccc3S(N)(=O)=O)cc2F)CCCC1

>  <score_type>  (45) 
oracle

>  <origin>  (45) 
adg

>  <m_score__min__energy>  (45) 
-16.77

>  <m_primary>  (45) 
energy

>  <minimizedAffinity>  (45) 
-8.45079

>  <minimizedRMSD>  (45) 
0.49634

>  <CNNscore>  (45) 
0.8697044849

>  <CNNaffinity>  (45) 
7.1660919189

>  <CNN_VS>  (45) 
6.2323822975

>  <CNNaffinity_variance>  (45) 
0.0621123649

$$$$
11:0
     RDKit          3D

 29 32  0  0  0  0  0  0  0  0999 V2000
   60.3760   27.0682   46.5791 C   0  0  0  0  0  0  0  0  0  0  0  0
   59.5061   28.0243   46.2074 C   0  0  0  0  0  0  0  0  0  0  0  0
   58.4284   27.8549   45.3212 C   0  0  0  0  0  0  0  0  0  0  0  0
   57.8533   26.7396   44.8319 C   0  0  0  0  0  0  0  0  0  0  0  0
   57.9856   29.1228   45.0049 C   0  0  0  0  0  0  0  0  0  0  0  0
   58.7378   30.0075   45.7461 C   0  0  0  0  0  0  0  0  0  0  0  0
   58.5646   31.4949   45.6845 C   0  0  0  0  0  0  0  0  0  0  0  0
   59.6368   29.3467   46.5193 N   0  0  0  0  0  0  0  0  0  0  0  0
   57.3784   25.5989   45.6305 C   0  0  0  0  0  0  0  0  0  0  0  0
   58.0800   24.4655   45.7995 N   0  0  0  0  0  0  0  0  0  0  0  0
   57.2304   23.6694   46.4841 C   0  0  0  0  0  0  0  0  0  0  0  0
   57.5383   22.5055   46.8494 O   0  0  0  0  0  0  0  0  0  0  0  0
   56.0203   24.2149   46.7371 N   0  0  0  0  0  0  0  0  0  0  0  0
   56.1238   25.4311   46.1769 C   0  0  0  0  0  0  0  0  0  0  0  0
   55.0885   26.3601   46.1407 O   0  0  0  0  0  0  0  0  0  0  0  0
   60.6310   29.9745   47.4156 C   0  0  0  0  0  0  0  0  0  0  0  0
   59.9824   30.6630   48.6027 C   0  0  0  0  0  0  0  0  0  0  0  0
   59.1455   29.9020   49.4393 C   0  0  0  0  0  0  0  0  0  0  0  0
   58.5281   30.4741   50.5517 C   0  0  0  0  0  0  0  0  0  0  0  0
   57.7383   29.7102   51.3544 N   0  0  0  0  0  0  0  0  0  0  0  0
   57.1175   30.2252   52.4474 C   0  0  0  0  0  0  0  0  0  0  0  0
   57.2748   31.5719   52.7750 C   0  0  0  0  0  0  0  0  0  0  0  0
   58.0777   32.3878   51.9717 C   0  0  0  0  0  0  0  0  0  0  0  0
   58.2155   33.6054   52.2706 O   0  0  0  0  0  0  0  0  0  0  0  0
   58.7177   31.8414   50.8420 C   0  0  0  0  0  0  0  0  0  0  0  0
   59.5259   32.6171   49.9962 C   0  0  0  0  0  0  0  0  0  0  0  0
   60.1635   32.0460   48.8798 C   0  0  0  0  0  0  0  0  0  0  0  0
   60.9470   32.9701   47.9713 C   0  0  0  0  0  0  0  0  0  0  0  0
   60.1392   34.2176   47.6316 C   0  0  0  0  0  0  0  0  0  0  0  0
  1  2  2  0
  2  3  1  0
  3  4  2  0
  4  9  1  0
  9 10  1  0
 10 11  1  0
 11 12  2  0
 11 13  1  0
 13 14  1  0
 14 15  1  0
  3  5  1  0
  5  6  2  0
  6  7  1  0
  6  8  1  0
  8 16  1  0
 16 17  1  0
 17 18  2  0
 18 19  1  0
 19 20  1  0
 20 21  1  0
 21 22  2  0
 22 23  1  0
 23 24  2  0
 23 25  1  0
 25 26  1  0
 26 27  2  0
 27 28  1  0
 28 29  1  0
  8  2  1  0
 27 17  1  0
 14  9  2  0
 25 19  2  0
M  CHG  3  10  -1  13  -1  20  -1
M  END
>  <UniqueID>  (46) 
12

>  <SMILES>  (46) 
C=c1c(=Cc2[n-]c(=O)[n-]c2O)cc(C)n1Cc1cc2[n-]ccc(=O)c2cc1CC

>  <Energy>  (46) 
125.48782317897142

>  <Genealogy>  (46) 
C=c1c(=Cc2[n-]c(=O)[n-]c2O)cc(C)n1Cc1cc2[n-]ccc(=O)c2cc1CC (protonated)
C=c1c(=Cc2[n-]c(=O)[n-]c2O)cc(C)n1Cc1cc2[n-]ccc(=O)c2cc1CC (3D coordinates assigned)
C=c1c(=Cc2[n-]c(=O)[n-]c2O)cc(C)n1Cc1cc2[n-]ccc(=O)c2cc1CC (optimized conformer: 125.48782317897142 kcal/mol)

>  <smiles>  (46) 
C=c1c(=Cc2[nH]c(=O)[nH]c2O)cc(C)n1Cc1cc2[nH]ccc(=O)c2cc1CC

>  <score_type>  (46) 
oracle

>  <origin>  (46) 
adg

>  <m_score__min__energy>  (46) 
-14.449999999999999

>  <m_primary>  (46) 
energy

>  <minimizedAffinity>  (46) 
-9.15312

>  <minimizedRMSD>  (46) 
0.48541

>  <CNNscore>  (46) 
0.4515824914

>  <CNNaffinity>  (46) 
6.9668731689

>  <CNN_VS>  (46) 
3.1461179256

>  <CNNaffinity_variance>  (46) 
0.0778742135

$$$$
83:0
     RDKit          3D

 28 30  0  0  0  0  0  0  0  0999 V2000
   58.4976   27.1708   43.4876 C   0  0  0  0  0  0  0  0  0  0  0  0
   58.6850   26.6808   44.7233 C   0  0  0  0  0  0  0  0  0  0  0  0
   58.1535   25.4906   45.2398 C   0  0  0  0  0  0  0  0  0  0  0  0
   57.3214   24.6362   44.6053 C   0  0  0  0  0  0  0  0  0  0  0  0
   58.6664   25.3677   46.5273 C   0  0  0  0  0  0  0  0  0  0  0  0
   59.4698   26.4701   46.7431 C   0  0  0  0  0  0  0  0  0  0  0  0
   60.2310   26.7393   48.0040 C   0  0  0  0  0  0  0  0  0  0  0  0
   59.4673   27.2744   45.6593 N   0  0  0  0  0  0  0  0  0  0  0  0
   60.2156   28.4936   45.5197 C   0  0  0  0  0  0  0  0  0  0  0  0
   61.1749   28.5377   44.7014 O   0  0  0  0  0  0  0  0  0  0  0  0
   59.8899   29.6577   46.3055 N   0  0  0  0  0  0  0  0  0  0  0  0
   60.9843   30.4769   46.8346 C   0  0  0  0  0  0  0  0  0  0  0  0
   55.9924   24.2040   45.0915 C   0  0  0  0  0  0  0  0  0  0  0  0
   55.4593   22.9755   44.9553 N   0  0  0  0  0  0  0  0  0  0  0  0
   54.2705   23.0736   45.5873 C   0  0  0  0  0  0  0  0  0  0  0  0
   53.4657   22.1093   45.6717 O   0  0  0  0  0  0  0  0  0  0  0  0
   54.0134   24.2844   46.1248 N   0  0  0  0  0  0  0  0  0  0  0  0
   55.1137   24.9854   45.8054 C   0  0  0  0  0  0  0  0  0  0  0  0
   55.3109   26.3143   46.1615 O   0  0  0  0  0  0  0  0  0  0  0  0
   58.4868   30.0199   46.5724 C   0  0  0  0  0  0  0  0  0  0  0  0
   58.1867   31.4395   46.1207 C   0  0  0  0  0  0  0  0  0  0  0  0
   57.7529   31.7370   44.7988 C   0  0  0  0  0  0  0  0  0  0  0  0
   57.6198   30.6746   43.7404 C   0  0  0  0  0  0  0  0  0  0  0  0
   57.4497   33.0676   44.4562 C   0  0  0  0  0  0  0  0  0  0  0  0
   57.6180   34.0964   45.3803 C   0  0  0  0  0  0  0  0  0  0  0  0
   58.1030   33.8188   46.6544 C   0  0  0  0  0  0  0  0  0  0  0  0
   58.3926   32.5039   47.0250 C   0  0  0  0  0  0  0  0  0  0  0  0
   58.8886   32.2747   48.2674 F   0  0  0  0  0  0  0  0  0  0  0  0
  1  2  2  0
  2  3  1  0
  3  4  2  0
  4 13  1  0
 13 14  1  0
 14 15  1  0
 15 16  2  0
 15 17  1  0
 17 18  1  0
 18 19  1  0
  3  5  1  0
  5  6  2  0
  6  7  1  0
  6  8  1  0
  8  9  1  0
  9 10  2  0
  9 11  1  0
 11 12  1  0
 11 20  1  0
 20 21  1  0
 21 22  2  0
 22 23  1  0
 22 24  1  0
 24 25  2  0
 25 26  1  0
 26 27  2  0
 27 28  1  0
  8  2  1  0
 27 21  1  0
 18 13  2  0
M  CHG  3  14  -1  17  -1  19  -1
M  END
>  <UniqueID>  (47) 
81

>  <SMILES>  (47) 
C=c1c(=Cc2[n-]c(=O)[n-]c2[O-])cc(C)n1C(=O)N(C)Cc1c(C)cccc1F

>  <Energy>  (47) 
113.09391766113603

>  <Genealogy>  (47) 
C=c1c(=Cc2[n-]c(=O)[n-]c2[O-])cc(C)n1C(=O)N(C)Cc1c(C)cccc1F (protonated)
C=c1c(=Cc2[n-]c(=O)[n-]c2[O-])cc(C)n1C(=O)N(C)Cc1c(C)cccc1F (3D coordinates assigned)
C=c1c(=Cc2[n-]c(=O)[n-]c2[O-])cc(C)n1C(=O)N(C)Cc1c(C)cccc1F (optimized conformer: 113.09391766113603 kcal/mol)

>  <smiles>  (47) 
C=c1c(=Cc2[nH]c(=O)[nH]c2O)cc(C)n1C(=O)N(C)Cc1c(C)cccc1F

>  <score_type>  (47) 
oracle

>  <origin>  (47) 
adg

>  <m_score__min__energy>  (47) 
-15.550000000000001

>  <m_primary>  (47) 
energy

>  <minimizedAffinity>  (47) 
-7.96979

>  <minimizedRMSD>  (47) 
0.36515

>  <CNNscore>  (47) 
0.1537493914

>  <CNNaffinity>  (47) 
6.3963890076

>  <CNN_VS>  (47) 
0.9834409356

>  <CNNaffinity_variance>  (47) 
0.0646603331

$$$$
74:0
     RDKit          3D

 27 29  0  0  0  0  0  0  0  0999 V2000
   60.5290   30.1963   46.9611 C   0  0  0  0  0  0  0  0  0  0  0  0
   59.4559   29.7644   46.2966 C   0  0  0  0  0  0  0  0  0  0  0  0
   59.2223   28.4468   46.0920 N   0  0  0  0  0  0  0  0  0  0  0  0
   58.0251   28.4094   45.4695 C   0  0  0  0  0  0  0  0  0  0  0  0
   57.4130   27.2911   45.0525 C   0  0  0  0  0  0  0  0  0  0  0  0
   57.5675   29.6981   45.3041 C   0  0  0  0  0  0  0  0  0  0  0  0
   56.4883   30.0385   44.7500 O   0  0  0  0  0  0  0  0  0  0  0  0
   58.4651   30.5590   45.8156 N   0  0  0  0  0  0  0  0  0  0  0  0
   58.3510   31.9926   45.8132 C   0  0  0  0  0  0  0  0  0  0  0  0
   58.5346   32.6216   44.7350 O   0  0  0  0  0  0  0  0  0  0  0  0
   57.3236   26.0590   45.8699 C   0  0  0  0  0  0  0  0  0  0  0  0
   56.0748   25.6173   46.3331 C   0  0  0  0  0  0  0  0  0  0  0  0
   54.9139   26.3114   46.0084 O   0  0  0  0  0  0  0  0  0  0  0  0
   55.9872   24.4967   47.0934 N   0  0  0  0  0  0  0  0  0  0  0  0
   57.0962   23.7919   47.4326 C   0  0  0  0  0  0  0  0  0  0  0  0
   56.9897   22.7517   48.1336 O   0  0  0  0  0  0  0  0  0  0  0  0
   58.3193   24.2101   47.0218 N   0  0  0  0  0  0  0  0  0  0  0  0
   58.4619   25.3257   46.2605 C   0  0  0  0  0  0  0  0  0  0  0  0
   59.6192   25.7041   45.9374 O   0  0  0  0  0  0  0  0  0  0  0  0
   58.2162   32.7582   47.1041 C   0  0  0  0  0  0  0  0  0  0  0  0
   59.0310   34.0611   47.1222 C   0  0  0  0  0  0  0  0  0  0  0  0
   60.4203   33.8512   47.6658 C   0  0  0  0  0  0  0  0  0  0  0  0
   60.6638   33.9644   49.0457 C   0  0  0  0  0  0  0  0  0  0  0  0
   61.9595   33.8098   49.5467 C   0  0  0  0  0  0  0  0  0  0  0  0
   63.0212   33.5478   48.6761 C   0  0  0  0  0  0  0  0  0  0  0  0
   62.7878   33.4382   47.3018 C   0  0  0  0  0  0  0  0  0  0  0  0
   61.4928   33.5895   46.7970 C   0  0  0  0  0  0  0  0  0  0  0  0
  1  2  2  0
  2  3  1  0
  3  4  1  0
  4  5  2  0
  5 11  1  0
 11 12  2  0
 12 13  1  0
 12 14  1  0
 14 15  1  0
 15 16  2  0
 15 17  1  0
 17 18  1  0
 18 19  2  0
  4  6  1  0
  6  7  2  0
  6  8  1  0
  8  9  1  0
  9 10  2  0
  9 20  1  0
 20 21  1  0
 21 22  1  0
 22 23  2  0
 23 24  1  0
 24 25  2  0
 25 26  1  0
 26 27  2  0
  8  2  1  0
 27 22  1  0
 18 11  1  0
M  CHG  4   3  -1  13  -1  14  -1  17  -1
M  END
>  <UniqueID>  (48) 
71

>  <SMILES>  (48) 
C=c1[n-]c(=Cc2c([O-])[n-]c(=O)[n-]c2=O)c(=O)n1C(=O)CCc1ccccc1

>  <Energy>  (48) 
86.1191338120621

>  <Genealogy>  (48) 
C=c1[n-]c(=Cc2c([O-])[n-]c(=O)[n-]c2=O)c(=O)n1C(=O)CCc1ccccc1 (protonated)
C=c1[n-]c(=Cc2c([O-])[n-]c(=O)[n-]c2=O)c(=O)n1C(=O)CCc1ccccc1 (3D coordinates assigned)
C=c1[n-]c(=Cc2c([O-])[n-]c(=O)[n-]c2=O)c(=O)n1C(=O)CCc1ccccc1 (optimized conformer: 86.1191338120621 kcal/mol)

>  <smiles>  (48) 
C=c1[nH]c(=Cc2c(O)[nH]c(=O)[nH]c2=O)c(=O)n1C(=O)CCc1ccccc1

>  <score_type>  (48) 
oracle

>  <origin>  (48) 
adg

>  <m_score__min__energy>  (48) 
-17.629999999999999

>  <m_primary>  (48) 
energy

>  <minimizedAffinity>  (48) 
-8.30927

>  <minimizedRMSD>  (48) 
0.46833

>  <CNNscore>  (48) 
0.4504516125

>  <CNNaffinity>  (48) 
6.7131175995

>  <CNN_VS>  (48) 
3.0239346027

>  <CNNaffinity_variance>  (48) 
0.3514217436

$$$$
25:0
     RDKit          3D

 31 34  0  0  0  0  0  0  0  0999 V2000
   61.4102   30.8360   48.8694 C   0  0  0  0  0  0  0  0  0  0  0  0
   60.6184   31.6058   48.1070 C   0  0  0  0  0  0  0  0  0  0  0  0
   60.0419   32.7541   48.5415 N   0  0  0  0  0  0  0  0  0  0  0  0
   59.3506   33.2212   47.4857 C   0  0  0  0  0  0  0  0  0  0  0  0
   58.7465   34.3264   47.4865 O   0  0  0  0  0  0  0  0  0  0  0  0
   59.4734   32.3447   46.4148 C   0  0  0  0  0  0  0  0  0  0  0  0
   58.9208   32.4609   45.1858 C   0  0  0  0  0  0  0  0  0  0  0  0
   60.3007   31.3343   46.8072 N   0  0  0  0  0  0  0  0  0  0  0  0
   57.8547   31.6000   44.6406 C   0  0  0  0  0  0  0  0  0  0  0  0
   57.1038   30.7441   45.3579 N   0  0  0  0  0  0  0  0  0  0  0  0
   56.3750   30.1011   44.4197 C   0  0  0  0  0  0  0  0  0  0  0  0
   55.5311   29.2140   44.7072 O   0  0  0  0  0  0  0  0  0  0  0  0
   56.6323   30.4763   43.1485 N   0  0  0  0  0  0  0  0  0  0  0  0
   57.5797   31.4167   43.3066 C   0  0  0  0  0  0  0  0  0  0  0  0
   58.1874   32.0908   42.2525 O   0  0  0  0  0  0  0  0  0  0  0  0
   60.2063   33.4280   49.8353 C   0  0  0  0  0  0  0  0  0  0  0  0
   59.2168   32.8959   50.8236 C   0  0  0  0  0  0  0  0  0  0  0  0
   58.3793   31.8049   50.6351 C   0  0  0  0  0  0  0  0  0  0  0  0
   57.5819   31.5239   51.7524 C   0  0  0  0  0  0  0  0  0  0  0  0
   57.7922   32.3878   52.8186 C   0  0  0  0  0  0  0  0  0  0  0  0
   58.9706   33.5014   52.3732 S   0  0  0  0  0  0  0  0  0  0  0  0
   60.7029   30.1405   46.0395 C   0  0  0  0  0  0  0  0  0  0  0  0
   60.0521   28.9029   46.6059 C   0  0  0  0  0  0  0  0  0  0  0  0
   60.4445   28.4012   47.8557 C   0  0  0  0  0  0  0  0  0  0  0  0
   59.8338   27.2621   48.3810 C   0  0  0  0  0  0  0  0  0  0  0  0
   58.8270   26.6103   47.6649 C   0  0  0  0  0  0  0  0  0  0  0  0
   58.4222   27.0919   46.4072 C   0  0  0  0  0  0  0  0  0  0  0  0
   59.0456   28.2393   45.8844 C   0  0  0  0  0  0  0  0  0  0  0  0
   57.3540   26.4010   45.6458 C   0  0  0  0  0  0  0  0  0  0  0  0
   55.9851   26.5501   46.0185 N   0  0  0  0  0  0  0  0  0  0  0  0
   57.6462   25.6714   44.6596 O   0  0  0  0  0  0  0  0  0  0  0  0
  1  2  2  0
  2  3  1  0
  3 16  1  0
 16 17  1  0
 17 18  2  0
 18 19  1  0
 19 20  2  0
 20 21  1  0
  3  4  1  0
  4  5  2  0
  4  6  1  0
  6  7  2  0
  7  9  1  0
  9 10  1  0
 10 11  1  0
 11 12  2  0
 11 13  1  0
 13 14  1  0
 14 15  1  0
  6  8  1  0
  8 22  1  0
 22 23  1  0
 23 24  2  0
 24 25  1  0
 25 26  2  0
 26 27  1  0
 27 29  1  0
 29 30  1  0
 29 31  2  0
 27 28  2  0
  8  2  1  0
 28 23  1  0
 21 17  1  0
 14  9  2  0
M  CHG  3  10  -1  13  -1  30  -1
M  END
>  <UniqueID>  (49) 
24

>  <SMILES>  (49) 
C=c1n(Cc2cccs2)c(=O)c(=Cc2[n-]c(=O)[n-]c2O)n1Cc1cccc(C([NH-])=O)c1

>  <Energy>  (49) 
147.80052533277455

>  <Genealogy>  (49) 
C=c1n(Cc2cccs2)c(=O)c(=Cc2[n-]c(=O)[n-]c2O)n1Cc1cccc(C([NH-])=O)c1 (protonated)
C=c1n(Cc2cccs2)c(=O)c(=Cc2[n-]c(=O)[n-]c2O)n1Cc1cccc(C([NH-])=O)c1 (3D coordinates assigned)
C=c1n(Cc2cccs2)c(=O)c(=Cc2[n-]c(=O)[n-]c2O)n1Cc1cccc(C([NH-])=O)c1 (optimized conformer: 147.80052533277455 kcal/mol)

>  <smiles>  (49) 
C=c1n(Cc2cccs2)c(=O)c(=Cc2[nH]c(=O)[nH]c2O)n1Cc1cccc(C(N)=O)c1

>  <score_type>  (49) 
oracle

>  <origin>  (49) 
adg

>  <m_score__min__energy>  (49) 
-14.52

>  <m_primary>  (49) 
energy

>  <minimizedAffinity>  (49) 
-8.14886

>  <minimizedRMSD>  (49) 
0.44480

>  <CNNscore>  (49) 
0.3744829595

>  <CNNaffinity>  (49) 
6.8031134605

>  <CNN_VS>  (49) 
2.5476500988

>  <CNNaffinity_variance>  (49) 
0.0734156594

$$$$
