1:0
     RDKit          3D

 27 29  0  0  0  0  0  0  0  0999 V2000
   57.6722   30.8319   44.5226 C   0  0  0  0  0  0  0  0  0  0  0  0
   56.5042   30.5888   44.9240 O   0  0  0  0  0  0  0  0  0  0  0  0
   58.6468   29.7817   44.5544 N   0  0  0  0  0  0  0  0  0  0  0  0
   57.7092   26.5955   46.3109 C   0  0  0  0  0  0  0  0  0  0  0  0
   58.6779   26.5743   47.3262 C   0  0  0  0  0  0  0  0  0  0  0  0
   59.6136   27.6086   47.4277 C   0  0  0  0  0  0  0  0  0  0  0  0
   59.5997   28.6586   46.5046 C   0  0  0  0  0  0  0  0  0  0  0  0
   58.6608   28.6733   45.4629 C   0  0  0  0  0  0  0  0  0  0  0  0
   57.6994   27.6485   45.3835 C   0  0  0  0  0  0  0  0  0  0  0  0
   54.9533   25.9888   45.9221 N   0  0  0  0  0  0  0  0  0  0  0  0
   56.5120   25.3067   46.2144 S   0  0  0  0  0  0  0  0  0  0  0  0
   56.8692   24.3709   45.0949 O   0  0  0  0  0  0  0  0  0  0  0  0
   56.4823   24.5328   47.5039 O   0  0  0  0  0  0  0  0  0  0  0  0
   58.0466   32.2512   44.1763 C   0  0  0  0  0  0  0  0  0  0  0  0
   58.0767   33.0926   45.3929 N   0  0  0  0  0  0  0  0  0  0  0  0
   58.4394   32.3005   46.5990 C   0  0  0  0  0  0  0  0  0  0  0  0
   59.9370   32.3794   46.9252 C   0  0  0  0  0  0  0  0  0  0  0  0
   60.3868   33.8381   47.2055 C   0  0  0  0  0  0  0  0  0  0  0  0
   59.4534   34.8637   46.5143 C   0  0  0  0  0  0  0  0  0  0  0  0
   58.9186   34.3042   45.1914 C   0  0  0  0  0  0  0  0  0  0  0  0
   60.4909   34.1090   48.7227 C   0  0  0  0  0  0  0  0  0  0  0  0
   61.8200   33.6656   49.2841 C   0  0  0  0  0  0  0  0  0  0  0  0
   61.9565   33.4144   50.6622 C   0  0  0  0  0  0  0  0  0  0  0  0
   63.1770   32.9707   51.1787 C   0  0  0  0  0  0  0  0  0  0  0  0
   64.2680   32.7718   50.3267 C   0  0  0  0  0  0  0  0  0  0  0  0
   64.1391   33.0154   48.9547 C   0  0  0  0  0  0  0  0  0  0  0  0
   62.9198   33.4585   48.4330 C   0  0  0  0  0  0  0  0  0  0  0  0
 10 11  1  0
 11 12  2  0
 11 13  2  0
 11  4  1  0
  4  5  2  0
  5  6  1  0
  6  7  2  0
  7  8  1  0
  8  3  1  0
  3  1  1  0
  1  2  2  0
  1 14  1  0
 14 15  1  0
 15 16  1  0
 16 17  1  0
 17 18  1  0
 18 21  1  0
 21 22  1  0
 22 23  2  0
 23 24  1  0
 24 25  2  0
 25 26  1  0
 26 27  2  0
 18 19  1  0
 19 20  1  0
  8  9  2  0
  9  4  1  0
 20 15  1  0
 27 22  1  0
M  CHG  2   3  -1  10  -1
M  END
>  <UniqueID>  (1) 
2

>  <SMILES>  (1) 
[NH-]S(=O)(=O)c1cccc([N-]C(=O)CN2CCC(Cc3ccccc3)CC2)c1

>  <Energy>  (1) 
63.58544599757763

>  <Genealogy>  (1) 
[NH-]S(=O)(=O)c1cccc([N-]C(=O)CN2CCC(Cc3ccccc3)CC2)c1 (protonated)
[NH-]S(=O)(=O)c1cccc([N-]C(=O)CN2CCC(Cc3ccccc3)CC2)c1 (3D coordinates assigned)
[NH-]S(=O)(=O)c1cccc([N-]C(=O)CN2CCC(Cc3ccccc3)CC2)c1 (nonaromatic ring conformer: 63.58544599757763 kcal/mol)

>  <smiles>  (1) 
NS(=O)(=O)c1cccc(NC(=O)CN2CCC(Cc3ccccc3)CC2)c1

>  <score_type>  (1) 
oracle

>  <origin>  (1) 
adg

>  <m_score__min__energy>  (1) 
-14.289999999999999

>  <m_primary>  (1) 
energy

>  <minimizedAffinity>  (1) 
-9.02048

>  <minimizedRMSD>  (1) 
0.69324

>  <CNNscore>  (1) 
0.9268260598

>  <CNNaffinity>  (1) 
7.3576769829

>  <CNN_VS>  (1) 
6.8192868233

>  <CNNaffinity_variance>  (1) 
0.0174090546

$$$$
50:0
     RDKit          3D

 25 26  0  0  0  0  0  0  0  0999 V2000
   57.6248   30.9896   44.8335 C   0  0  0  0  0  0  0  0  0  0  0  0
   56.4051   30.7176   44.6858 O   0  0  0  0  0  0  0  0  0  0  0  0
   58.5948   29.9644   44.5757 N   0  0  0  0  0  0  0  0  0  0  0  0
   58.0665   26.5954   46.1539 C   0  0  0  0  0  0  0  0  0  0  0  0
   59.2847   26.4402   46.8283 C   0  0  0  0  0  0  0  0  0  0  0  0
   60.2444   27.4550   46.7826 C   0  0  0  0  0  0  0  0  0  0  0  0
   60.0048   28.6143   46.0406 C   0  0  0  0  0  0  0  0  0  0  0  0
   58.8079   28.7623   45.3290 C   0  0  0  0  0  0  0  0  0  0  0  0
   57.8212   27.7664   45.4249 C   0  0  0  0  0  0  0  0  0  0  0  0
   55.2754   26.0270   46.0730 N   0  0  0  0  0  0  0  0  0  0  0  0
   56.8495   25.3232   46.1917 S   0  0  0  0  0  0  0  0  0  0  0  0
   57.0525   24.3751   45.0436 O   0  0  0  0  0  0  0  0  0  0  0  0
   56.9656   24.5571   47.4792 O   0  0  0  0  0  0  0  0  0  0  0  0
   57.9996   32.3406   45.3841 C   0  0  0  0  0  0  0  0  0  0  0  0
   59.0402   32.2177   46.4071 N   0  0  0  0  0  0  0  0  0  0  0  0
   59.7699   33.7582   46.7671 S   0  0  0  0  0  0  0  0  0  0  0  0
   60.1151   34.4471   45.4788 O   0  0  0  0  0  0  0  0  0  0  0  0
   58.7832   34.6050   47.5203 O   0  0  0  0  0  0  0  0  0  0  0  0
   61.2469   33.5668   47.7149 C   0  0  0  0  0  0  0  0  0  0  0  0
   61.2600   33.8754   49.0826 C   0  0  0  0  0  0  0  0  0  0  0  0
   62.4181   33.6751   49.8376 C   0  0  0  0  0  0  0  0  0  0  0  0
   63.5717   33.1708   49.2310 C   0  0  0  0  0  0  0  0  0  0  0  0
   65.1410   32.8620   50.2726 Br  0  0  0  0  0  0  0  0  0  0  0  0
   63.5726   32.8861   47.8617 C   0  0  0  0  0  0  0  0  0  0  0  0
   62.4147   33.0881   47.1035 C   0  0  0  0  0  0  0  0  0  0  0  0
 10 11  1  0
 11 12  2  0
 11 13  2  0
 11  4  1  0
  4  5  2  0
  5  6  1  0
  6  7  2  0
  7  8  1  0
  8  3  1  0
  3  1  1  0
  1  2  2  0
  1 14  1  0
 14 15  1  0
 15 16  1  0
 16 17  2  0
 16 18  2  0
 16 19  1  0
 19 20  2  0
 20 21  1  0
 21 22  2  0
 22 23  1  0
 22 24  1  0
 24 25  2  0
  8  9  2  0
  9  4  1  0
 25 19  1  0
M  CHG  3   3  -1  10  -1  15  -1
M  END
>  <UniqueID>  (2) 
43

>  <SMILES>  (2) 
[NH-]S(=O)(=O)c1cccc([N-]C(=O)C[N-]S(=O)(=O)c2ccc(Br)cc2)c1

>  <Energy>  (2) 
34.765730729493846

>  <Genealogy>  (2) 
[NH-]S(=O)(=O)c1cccc([N-]C(=O)C[N-]S(=O)(=O)c2ccc(Br)cc2)c1 (protonated)
[NH-]S(=O)(=O)c1cccc([N-]C(=O)C[N-]S(=O)(=O)c2ccc(Br)cc2)c1 (3D coordinates assigned)
[NH-]S(=O)(=O)c1cccc([N-]C(=O)C[N-]S(=O)(=O)c2ccc(Br)cc2)c1 (optimized conformer: 34.765730729493846 kcal/mol)

>  <smiles>  (2) 
NS(=O)(=O)c1cccc(NC(=O)CNS(=O)(=O)c2ccc(Br)cc2)c1

>  <score_type>  (2) 
oracle

>  <origin>  (2) 
adg

>  <m_score__min__energy>  (2) 
-14.01

>  <m_primary>  (2) 
energy

>  <minimizedAffinity>  (2) 
-8.28526

>  <minimizedRMSD>  (2) 
0.70410

>  <CNNscore>  (2) 
0.9205569029

>  <CNNaffinity>  (2) 
7.1180481911

>  <CNN_VS>  (2) 
6.5525684357

>  <CNNaffinity_variance>  (2) 
0.2342717201

$$$$
11:0
     RDKit          3D

 30 32  0  0  0  0  0  0  0  0999 V2000
   56.7298   31.8291   44.9695 N   0  0  0  0  0  0  0  0  0  0  0  0
   57.7625   32.6828   45.4784 C   0  0  0  0  0  0  0  0  0  0  0  0
   58.2180   33.7427   44.6849 C   0  0  0  0  0  0  0  0  0  0  0  0
   59.2301   34.5856   45.1489 C   0  0  0  0  0  0  0  0  0  0  0  0
   59.7773   34.3898   46.4200 C   0  0  0  0  0  0  0  0  0  0  0  0
   59.3029   33.3582   47.2422 C   0  0  0  0  0  0  0  0  0  0  0  0
   58.2934   32.5083   46.7702 C   0  0  0  0  0  0  0  0  0  0  0  0
   59.9320   33.1654   48.8832 S   0  0  0  0  0  0  0  0  0  0  0  0
   59.3949   31.8882   49.4629 O   0  0  0  0  0  0  0  0  0  0  0  0
   59.4391   34.2989   49.7391 O   0  0  0  0  0  0  0  0  0  0  0  0
   61.6794   33.1469   48.9301 N   0  0  0  0  0  0  0  0  0  0  0  0
   62.1696   32.0773   49.8140 C   0  0  0  0  0  0  0  0  0  0  0  0
   63.7144   32.0684   49.8225 C   0  0  0  0  0  0  0  0  0  0  0  0
   64.2534   33.0430   48.9467 O   0  0  0  0  0  0  0  0  0  0  0  0
   63.7642   32.8284   47.6363 C   0  0  0  0  0  0  0  0  0  0  0  0
   62.2284   32.9724   47.5757 C   0  0  0  0  0  0  0  0  0  0  0  0
   56.8864   30.4445   44.6235 C   0  0  0  0  0  0  0  0  0  0  0  0
   55.9569   29.6189   44.8397 O   0  0  0  0  0  0  0  0  0  0  0  0
   58.1862   29.9593   44.0627 C   0  0  0  0  0  0  0  0  0  0  0  0
   58.3625   28.1395   44.1882 S   0  0  0  0  0  0  0  0  0  0  0  0
   58.5715   27.1970   46.8435 C   0  0  0  0  0  0  0  0  0  0  0  0
   59.0887   27.2773   48.1466 C   0  0  0  0  0  0  0  0  0  0  0  0
   60.0153   28.2651   48.4832 C   0  0  0  0  0  0  0  0  0  0  0  0
   60.4541   29.1693   47.5184 C   0  0  0  0  0  0  0  0  0  0  0  0
   59.9635   29.0944   46.2170 C   0  0  0  0  0  0  0  0  0  0  0  0
   59.0023   28.1344   45.8723 C   0  0  0  0  0  0  0  0  0  0  0  0
   55.9216   26.4933   46.0630 N   0  0  0  0  0  0  0  0  0  0  0  0
   57.4779   25.8554   46.4598 S   0  0  0  0  0  0  0  0  0  0  0  0
   57.3530   24.8924   47.6091 O   0  0  0  0  0  0  0  0  0  0  0  0
   58.0099   25.1004   45.2721 O   0  0  0  0  0  0  0  0  0  0  0  0
 27 28  1  0
 28 29  2  0
 28 30  2  0
 28 21  1  0
 21 22  2  0
 22 23  1  0
 23 24  2  0
 24 25  1  0
 25 26  2  0
 26 20  1  0
 20 19  1  0
 19 17  1  0
 17 18  2  0
 17  1  1  0
  1  2  1  0
  2  3  2  0
  3  4  1  0
  4  5  2  0
  5  6  1  0
  6  8  1  0
  8  9  2  0
  8 10  2  0
  8 11  1  0
 11 12  1  0
 12 13  1  0
 13 14  1  0
 14 15  1  0
 15 16  1  0
  6  7  2  0
 26 21  1  0
  7  2  1  0
 16 11  1  0
M  CHG  2   1  -1  27  -1
M  END
>  <UniqueID>  (3) 
11

>  <SMILES>  (3) 
[NH-]S(=O)(=O)c1ccccc1SCC(=O)[N-]c1cccc(S(=O)(=O)N2CCOCC2)c1

>  <Energy>  (3) 
57.62717279667207

>  <Genealogy>  (3) 
[NH-]S(=O)(=O)c1ccccc1SCC(=O)[N-]c1cccc(S(=O)(=O)N2CCOCC2)c1 (protonated)
[NH-]S(=O)(=O)c1ccccc1SCC(=O)[N-]c1cccc(S(=O)(=O)N2CCOCC2)c1 (3D coordinates assigned)
[NH-]S(=O)(=O)c1ccccc1SCC(=O)[N-]c1cccc(S(=O)(=O)N2CCOCC2)c1 (nonaromatic ring conformer: 57.62717279667207 kcal/mol)

>  <smiles>  (3) 
NS(=O)(=O)c1ccccc1SCC(=O)Nc1cccc(S(=O)(=O)N2CCOCC2)c1

>  <score_type>  (3) 
oracle

>  <origin>  (3) 
adg

>  <m_score__min__energy>  (3) 
-15.27

>  <m_primary>  (3) 
energy

>  <minimizedAffinity>  (3) 
-7.77490

>  <minimizedRMSD>  (3) 
1.03942

>  <CNNscore>  (3) 
0.9078956842

>  <CNNaffinity>  (3) 
7.3367676735

>  <CNN_VS>  (3) 
6.6610198021

>  <CNNaffinity_variance>  (3) 
0.2040032297

$$$$
34:0
     RDKit          3D

 21 22  0  0  0  0  0  0  0  0999 V2000
   59.2010   28.9684   45.2225 N   0  0  0  0  0  0  0  0  0  0  0  0
   58.5374   32.6877   46.2125 C   0  0  0  0  0  0  0  0  0  0  0  0
   57.4979   32.2514   45.3985 C   0  0  0  0  0  0  0  0  0  0  0  0
   57.6445   30.9201   44.9701 C   0  0  0  0  0  0  0  0  0  0  0  0
   58.8279   30.3379   45.4282 C   0  0  0  0  0  0  0  0  0  0  0  0
   59.6579   31.4467   46.3886 S   0  0  0  0  0  0  0  0  0  0  0  0
   56.6487   30.2389   44.1183 C   0  0  0  0  0  0  0  0  0  0  0  0
   55.5815   29.5013   44.7132 N   0  0  0  0  0  0  0  0  0  0  0  0
   56.7295   30.3004   42.8624 O   0  0  0  0  0  0  0  0  0  0  0  0
   60.0379   34.2257   47.4595 C   0  0  0  0  0  0  0  0  0  0  0  0
   58.6880   34.0676   46.7722 C   0  0  0  0  0  0  0  0  0  0  0  0
   58.4784   27.8149   45.6705 C   0  0  0  0  0  0  0  0  0  0  0  0
   58.1629   27.7368   46.8882 O   0  0  0  0  0  0  0  0  0  0  0  0
   58.0813   26.7107   44.7285 C   0  0  0  0  0  0  0  0  0  0  0  0
   57.5130   25.5394   45.4730 C   0  0  0  0  0  0  0  0  0  0  0  0
   58.3338   24.0971   45.7679 S   0  0  0  0  0  0  0  0  0  0  0  0
   57.0527   23.4483   46.6372 C   0  0  0  0  0  0  0  0  0  0  0  0
   57.0560   22.3020   47.1556 O   0  0  0  0  0  0  0  0  0  0  0  0
   56.0037   24.2928   46.7287 N   0  0  0  0  0  0  0  0  0  0  0  0
   56.2593   25.4614   46.0846 C   0  0  0  0  0  0  0  0  0  0  0  0
   55.3199   26.4902   46.0605 O   0  0  0  0  0  0  0  0  0  0  0  0
 10 11  1  0
 11  2  1  0
  2  3  2  0
  3  4  1  0
  4  7  1  0
  7  8  1  0
  7  9  2  0
  4  5  2  0
  5  1  1  0
  1 12  1  0
 12 13  2  0
 12 14  1  0
 14 15  1  0
 15 16  1  0
 16 17  1  0
 17 18  2  0
 17 19  1  0
 19 20  1  0
 20 21  1  0
  5  6  1  0
  6  2  1  0
 20 15  2  0
M  CHG  3   1  -1   8  -1  19  -1
M  END
>  <UniqueID>  (4) 
33

>  <SMILES>  (4) 
CCc1cc(C([NH-])=O)c([N-]C(=O)Cc2sc(=O)[n-]c2O)s1

>  <Energy>  (4) 
86.11004032873812

>  <Genealogy>  (4) 
CCc1cc(C([NH-])=O)c([N-]C(=O)Cc2sc(=O)[n-]c2O)s1 (protonated)
CCc1cc(C([NH-])=O)c([N-]C(=O)Cc2sc(=O)[n-]c2O)s1 (3D coordinates assigned)
CCc1cc(C([NH-])=O)c([N-]C(=O)Cc2sc(=O)[n-]c2O)s1 (optimized conformer: 86.11004032873812 kcal/mol)

>  <smiles>  (4) 
CCc1cc(C(N)=O)c(NC(=O)Cc2sc(=O)[nH]c2O)s1

>  <score_type>  (4) 
oracle

>  <origin>  (4) 
adg

>  <m_score__min__energy>  (4) 
-15.050000000000001

>  <m_primary>  (4) 
energy

>  <minimizedAffinity>  (4) 
-7.86310

>  <minimizedRMSD>  (4) 
0.74071

>  <CNNscore>  (4) 
0.9031599164

>  <CNNaffinity>  (4) 
7.1243090630

>  <CNN_VS>  (4) 
6.4343905449

>  <CNNaffinity_variance>  (4) 
0.6034827828

$$$$
41:0
     RDKit          3D

 22 23  0  0  0  0  0  0  0  0999 V2000
   57.2239   31.1971   45.0024 N   0  0  0  0  0  0  0  0  0  0  0  0
   58.1066   27.6012   45.6788 C   0  0  0  0  0  0  0  0  0  0  0  0
   59.5040   27.6835   45.6648 C   0  0  0  0  0  0  0  0  0  0  0  0
   60.1316   28.9088   45.4347 C   0  0  0  0  0  0  0  0  0  0  0  0
   59.3680   30.0607   45.2254 C   0  0  0  0  0  0  0  0  0  0  0  0
   57.9697   30.0000   45.2666 C   0  0  0  0  0  0  0  0  0  0  0  0
   57.3406   28.7606   45.4838 C   0  0  0  0  0  0  0  0  0  0  0  0
   55.6046   26.2926   46.0347 N   0  0  0  0  0  0  0  0  0  0  0  0
   57.3125   26.0532   45.9436 S   0  0  0  0  0  0  0  0  0  0  0  0
   57.6307   25.1175   44.8117 O   0  0  0  0  0  0  0  0  0  0  0  0
   57.8043   25.4425   47.2270 O   0  0  0  0  0  0  0  0  0  0  0  0
   57.7245   32.5393   45.0207 C   0  0  0  0  0  0  0  0  0  0  0  0
   58.2898   33.0335   44.0083 O   0  0  0  0  0  0  0  0  0  0  0  0
   57.5628   33.3634   46.2576 C   0  0  0  0  0  0  0  0  0  0  0  0
   59.1186   34.2261   46.6820 S   0  0  0  0  0  0  0  0  0  0  0  0
   59.8770   32.8135   47.4927 C   0  0  0  0  0  0  0  0  0  0  0  0
   61.2270   32.5177   47.2618 C   0  0  0  0  0  0  0  0  0  0  0  0
   61.8139   31.4017   47.8649 C   0  0  0  0  0  0  0  0  0  0  0  0
   61.0581   30.5862   48.7137 C   0  0  0  0  0  0  0  0  0  0  0  0
   59.7146   30.8896   48.9621 C   0  0  0  0  0  0  0  0  0  0  0  0
   58.9662   30.0810   49.8075 O   0  0  0  0  0  0  0  0  0  0  0  0
   59.1256   32.0047   48.3554 C   0  0  0  0  0  0  0  0  0  0  0  0
  8  9  1  0
  9 10  2  0
  9 11  2  0
  9  2  1  0
  2  3  2  0
  3  4  1  0
  4  5  2  0
  5  6  1  0
  6  1  1  0
  1 12  1  0
 12 13  2  0
 12 14  1  0
 14 15  1  0
 15 16  1  0
 16 17  2  0
 17 18  1  0
 18 19  2  0
 19 20  1  0
 20 21  1  0
 20 22  2  0
  6  7  2  0
  7  2  1  0
 22 16  1  0
M  CHG  3   1  -1   8  -1  21  -1
M  END
>  <UniqueID>  (5) 
41

>  <SMILES>  (5) 
[NH-]S(=O)(=O)c1cccc([N-]C(=O)CSc2cccc([O-])c2)c1

>  <Energy>  (5) 
30.02124277569691

>  <Genealogy>  (5) 
[NH-]S(=O)(=O)c1cccc([N-]C(=O)CSc2cccc([O-])c2)c1 (protonated)
[NH-]S(=O)(=O)c1cccc([N-]C(=O)CSc2cccc([O-])c2)c1 (3D coordinates assigned)
[NH-]S(=O)(=O)c1cccc([N-]C(=O)CSc2cccc([O-])c2)c1 (optimized conformer: 30.02124277569691 kcal/mol)

>  <smiles>  (5) 
NS(=O)(=O)c1cccc(NC(=O)CSc2cccc(O)c2)c1

>  <score_type>  (5) 
oracle

>  <origin>  (5) 
adg

>  <m_score__min__energy>  (5) 
-14.66

>  <m_primary>  (5) 
energy

>  <minimizedAffinity>  (5) 
-7.71197

>  <minimizedRMSD>  (5) 
1.45255

>  <CNNscore>  (5) 
0.9109647870

>  <CNNaffinity>  (5) 
7.2006421089

>  <CNN_VS>  (5) 
6.5595312119

>  <CNNaffinity_variance>  (5) 
0.5297860503

$$$$
6:0
     RDKit          3D

 28 30  0  0  0  0  0  0  0  0999 V2000
   58.3891   32.4801   45.5687 C   0  0  0  0  0  0  0  0  0  0  0  0
   58.5647   33.5179   44.6286 C   0  0  0  0  0  0  0  0  0  0  0  0
   59.0750   34.7560   45.0157 C   0  0  0  0  0  0  0  0  0  0  0  0
   59.4203   34.9847   46.3448 C   0  0  0  0  0  0  0  0  0  0  0  0
   59.2543   33.9770   47.2948 C   0  0  0  0  0  0  0  0  0  0  0  0
   58.7388   32.7192   46.9251 C   0  0  0  0  0  0  0  0  0  0  0  0
   57.8483   31.1714   45.1043 C   0  0  0  0  0  0  0  0  0  0  0  0
   56.6087   31.0107   44.9423 O   0  0  0  0  0  0  0  0  0  0  0  0
   58.7481   30.0964   44.7981 N   0  0  0  0  0  0  0  0  0  0  0  0
   58.1276   26.6762   46.2416 C   0  0  0  0  0  0  0  0  0  0  0  0
   59.2587   26.5424   47.0575 C   0  0  0  0  0  0  0  0  0  0  0  0
   60.2005   27.5721   47.1231 C   0  0  0  0  0  0  0  0  0  0  0  0
   60.0220   28.7357   46.3710 C   0  0  0  0  0  0  0  0  0  0  0  0
   58.9055   28.8756   45.5363 C   0  0  0  0  0  0  0  0  0  0  0  0
   57.9445   27.8485   45.4945 C   0  0  0  0  0  0  0  0  0  0  0  0
   55.3459   26.0936   46.0850 N   0  0  0  0  0  0  0  0  0  0  0  0
   56.9226   25.3940   46.1907 S   0  0  0  0  0  0  0  0  0  0  0  0
   57.1630   24.5133   44.9960 O   0  0  0  0  0  0  0  0  0  0  0  0
   57.0194   24.5557   47.4354 O   0  0  0  0  0  0  0  0  0  0  0  0
   58.5556   31.6866   47.9067 N   0  0  0  0  0  0  0  0  0  0  0  0
   59.4788   31.4885   49.3597 S   0  0  0  0  0  0  0  0  0  0  0  0
   59.5984   30.0253   49.6818 O   0  0  0  0  0  0  0  0  0  0  0  0
   58.8166   32.2129   50.4990 O   0  0  0  0  0  0  0  0  0  0  0  0
   61.0780   32.1570   49.1054 C   0  0  0  0  0  0  0  0  0  0  0  0
   61.6448   33.1906   49.8336 C   0  0  0  0  0  0  0  0  0  0  0  0
   62.9398   33.5097   49.4083 C   0  0  0  0  0  0  0  0  0  0  0  0
   63.3869   32.7307   48.3488 C   0  0  0  0  0  0  0  0  0  0  0  0
   62.1720   31.6394   47.9411 S   0  0  0  0  0  0  0  0  0  0  0  0
 16 17  1  0
 17 18  2  0
 17 19  2  0
 17 10  1  0
 10 11  2  0
 11 12  1  0
 12 13  2  0
 13 14  1  0
 14  9  1  0
  9  7  1  0
  7  8  2  0
  7  1  1  0
  1  2  2  0
  2  3  1  0
  3  4  2  0
  4  5  1  0
  5  6  2  0
  6 20  1  0
 20 21  1  0
 21 22  2  0
 21 23  2  0
 21 24  1  0
 24 25  2  0
 25 26  1  0
 26 27  2  0
 27 28  1  0
 14 15  2  0
 15 10  1  0
  6  1  1  0
 28 24  1  0
M  CHG  3   9  -1  16  -1  20  -1
M  END
>  <UniqueID>  (6) 
6

>  <SMILES>  (6) 
[NH-]S(=O)(=O)c1cccc([N-]C(=O)c2ccccc2[N-]S(=O)(=O)c2cccs2)c1

>  <Energy>  (6) 
79.28327661483671

>  <Genealogy>  (6) 
[NH-]S(=O)(=O)c1cccc([N-]C(=O)c2ccccc2[N-]S(=O)(=O)c2cccs2)c1 (protonated)
[NH-]S(=O)(=O)c1cccc([N-]C(=O)c2ccccc2[N-]S(=O)(=O)c2cccs2)c1 (3D coordinates assigned)
[NH-]S(=O)(=O)c1cccc([N-]C(=O)c2ccccc2[N-]S(=O)(=O)c2cccs2)c1 (optimized conformer: 79.28327661483671 kcal/mol)

>  <smiles>  (6) 
NS(=O)(=O)c1cccc(NC(=O)c2ccccc2NS(=O)(=O)c2cccs2)c1

>  <score_type>  (6) 
oracle

>  <origin>  (6) 
adg

>  <m_score__min__energy>  (6) 
-14.35

>  <m_primary>  (6) 
energy

>  <minimizedAffinity>  (6) 
-8.87435

>  <minimizedRMSD>  (6) 
0.56135

>  <CNNscore>  (6) 
0.9762377143

>  <CNNaffinity>  (6) 
7.5419692993

>  <CNN_VS>  (6) 
7.3627548218

>  <CNNaffinity_variance>  (6) 
0.0535288118

$$$$
49:0
     RDKit          3D

 28 29  0  0  0  0  0  0  0  0999 V2000
   61.8573   32.9064   49.7615 S   0  0  0  0  0  0  0  0  0  0  0  0
   62.1651   34.3734   49.8767 O   0  0  0  0  0  0  0  0  0  0  0  0
   62.9605   32.1352   50.4285 O   0  0  0  0  0  0  0  0  0  0  0  0
   57.9204   31.9509   51.8869 C   0  0  0  0  0  0  0  0  0  0  0  0
   58.4485   31.0605   50.9449 C   0  0  0  0  0  0  0  0  0  0  0  0
   59.6440   31.3545   50.2829 C   0  0  0  0  0  0  0  0  0  0  0  0
   60.3331   32.5407   50.5674 C   0  0  0  0  0  0  0  0  0  0  0  0
   59.8269   33.4185   51.5336 C   0  0  0  0  0  0  0  0  0  0  0  0
   58.6308   33.1259   52.1948 C   0  0  0  0  0  0  0  0  0  0  0  0
   56.7044   31.6019   52.5623 N   0  0  0  0  0  0  0  0  0  0  0  0
   55.9336   30.4141   52.3514 C   0  0  0  0  0  0  0  0  0  0  0  0
   56.4272   29.2988   52.6684 O   0  0  0  0  0  0  0  0  0  0  0  0
   54.6459   30.4788   51.7269 N   0  0  0  0  0  0  0  0  0  0  0  0
   52.3022   31.1968   51.7133 C   0  0  0  0  0  0  0  0  0  0  0  0
   53.3861   30.4316   52.4612 C   0  0  0  0  0  0  0  0  0  0  0  0
   61.7770   32.4550   48.0859 N   0  0  0  0  0  0  0  0  0  0  0  0
   61.5899   33.6456   47.2613 C   0  0  0  0  0  0  0  0  0  0  0  0
   60.1045   33.9952   47.2024 C   0  0  0  0  0  0  0  0  0  0  0  0
   59.3493   32.9664   46.4052 C   0  0  0  0  0  0  0  0  0  0  0  0
   58.6359   33.3452   45.2555 C   0  0  0  0  0  0  0  0  0  0  0  0
   57.9051   32.3966   44.5359 C   0  0  0  0  0  0  0  0  0  0  0  0
   57.8665   31.0625   44.9623 C   0  0  0  0  0  0  0  0  0  0  0  0
   58.5716   30.6824   46.1119 C   0  0  0  0  0  0  0  0  0  0  0  0
   59.3028   31.6315   46.8337 C   0  0  0  0  0  0  0  0  0  0  0  0
   56.9532   29.8678   44.0453 S   0  0  0  0  0  0  0  0  0  0  0  0
   55.4530   29.5540   44.8409 N   0  0  0  0  0  0  0  0  0  0  0  0
   56.6851   30.3839   42.6602 O   0  0  0  0  0  0  0  0  0  0  0  0
   57.7447   28.5936   43.9411 O   0  0  0  0  0  0  0  0  0  0  0  0
 14 15  1  0
 15 13  1  0
 13 11  1  0
 11 12  2  0
 11 10  1  0
 10  4  1  0
  4  5  2  0
  5  6  1  0
  6  7  2  0
  7  1  1  0
  1  2  2  0
  1  3  2  0
  1 16  1  0
 16 17  1  0
 17 18  1  0
 18 19  1  0
 19 20  2  0
 20 21  1  0
 21 22  2  0
 22 25  1  0
 25 26  1  0
 25 27  2  0
 25 28  2  0
 22 23  1  0
 23 24  2  0
  7  8  1  0
  8  9  2  0
  9  4  1  0
 24 19  1  0
M  CHG  4  10  -1  13  -1  16  -1  26  -1
M  END
>  <UniqueID>  (7) 
47

>  <SMILES>  (7) 
CC[N-]C(=O)[N-]c1ccc(S(=O)(=O)[N-]CCc2ccc(S([NH-])(=O)=O)cc2)cc1

>  <Energy>  (7) 
39.50248145205739

>  <Genealogy>  (7) 
CC[N-]C(=O)[N-]c1ccc(S(=O)(=O)[N-]CCc2ccc(S([NH-])(=O)=O)cc2)cc1 (protonated)
CC[N-]C(=O)[N-]c1ccc(S(=O)(=O)[N-]CCc2ccc(S([NH-])(=O)=O)cc2)cc1 (3D coordinates assigned)
CC[N-]C(=O)[N-]c1ccc(S(=O)(=O)[N-]CCc2ccc(S([NH-])(=O)=O)cc2)cc1 (optimized conformer: 39.50248145205739 kcal/mol)

>  <smiles>  (7) 
CCNC(=O)Nc1ccc(S(=O)(=O)NCCc2ccc(S(N)(=O)=O)cc2)cc1

>  <score_type>  (7) 
oracle

>  <origin>  (7) 
adg

>  <m_score__min__energy>  (7) 
-14.880000000000001

>  <m_primary>  (7) 
energy

>  <minimizedAffinity>  (7) 
-7.52667

>  <minimizedRMSD>  (7) 
1.19854

>  <CNNscore>  (7) 
0.9617697597

>  <CNNaffinity>  (7) 
7.2713913918

>  <CNN_VS>  (7) 
6.9934043884

>  <CNNaffinity_variance>  (7) 
0.1730197519

$$$$
8:0
     RDKit          3D

 23 24  0  0  0  0  0  0  0  0999 V2000
   59.3538   29.2785   47.2388 C   0  0  0  0  0  0  0  0  0  0  0  0
   60.4319   29.6965   47.7358 O   0  0  0  0  0  0  0  0  0  0  0  0
   59.2450   27.8561   46.8398 C   0  0  0  0  0  0  0  0  0  0  0  0
   60.4066   27.1046   46.5954 C   0  0  0  0  0  0  0  0  0  0  0  0
   60.3154   25.7559   46.2434 C   0  0  0  0  0  0  0  0  0  0  0  0
   59.0640   25.1452   46.1265 C   0  0  0  0  0  0  0  0  0  0  0  0
   57.8963   25.8833   46.3541 C   0  0  0  0  0  0  0  0  0  0  0  0
   57.9892   27.2401   46.6906 C   0  0  0  0  0  0  0  0  0  0  0  0
   56.3136   25.1281   46.2047 S   0  0  0  0  0  0  0  0  0  0  0  0
   55.1073   26.3490   46.0064 N   0  0  0  0  0  0  0  0  0  0  0  0
   56.2914   24.2083   45.0178 O   0  0  0  0  0  0  0  0  0  0  0  0
   56.0204   24.3258   47.4428 O   0  0  0  0  0  0  0  0  0  0  0  0
   58.2669   30.2016   47.0771 N   0  0  0  0  0  0  0  0  0  0  0  0
   59.2012   32.8176   47.7894 C   0  0  0  0  0  0  0  0  0  0  0  0
   58.6723   32.5254   46.4109 C   0  0  0  0  0  0  0  0  0  0  0  0
   58.7485   33.5119   45.4174 C   0  0  0  0  0  0  0  0  0  0  0  0
   58.3229   33.2405   44.1193 C   0  0  0  0  0  0  0  0  0  0  0  0
   57.7962   31.9897   43.8009 C   0  0  0  0  0  0  0  0  0  0  0  0
   57.6975   30.9842   44.7766 C   0  0  0  0  0  0  0  0  0  0  0  0
   58.1893   31.2390   46.0851 C   0  0  0  0  0  0  0  0  0  0  0  0
   57.0360   29.7092   44.4132 C   0  0  0  0  0  0  0  0  0  0  0  0
   55.7067   29.4308   44.8469 N   0  0  0  0  0  0  0  0  0  0  0  0
   57.6337   28.8762   43.6789 O   0  0  0  0  0  0  0  0  0  0  0  0
 14 15  1  0
 15 16  2  0
 16 17  1  0
 17 18  2  0
 18 19  1  0
 19 21  1  0
 21 22  1  0
 21 23  2  0
 19 20  2  0
 20 13  1  0
 13  1  1  0
  1  2  2  0
  1  3  1  0
  3  4  2  0
  4  5  1  0
  5  6  2  0
  6  7  1  0
  7  9  1  0
  9 10  1  0
  9 11  2  0
  9 12  2  0
  7  8  2  0
 20 15  1  0
  8  3  1  0
M  CHG  3  10  -1  13  -1  22  -1
M  END
>  <UniqueID>  (8) 
8

>  <SMILES>  (8) 
Cc1cccc(C([NH-])=O)c1[N-]C(=O)c1cccc(S([NH-])(=O)=O)c1

>  <Energy>  (8) 
46.99000324727504

>  <Genealogy>  (8) 
Cc1cccc(C([NH-])=O)c1[N-]C(=O)c1cccc(S([NH-])(=O)=O)c1 (protonated)
Cc1cccc(C([NH-])=O)c1[N-]C(=O)c1cccc(S([NH-])(=O)=O)c1 (3D coordinates assigned)
Cc1cccc(C([NH-])=O)c1[N-]C(=O)c1cccc(S([NH-])(=O)=O)c1 (optimized conformer: 46.99000324727504 kcal/mol)

>  <smiles>  (8) 
Cc1cccc(C(N)=O)c1NC(=O)c1cccc(S(N)(=O)=O)c1

>  <score_type>  (8) 
oracle

>  <origin>  (8) 
adg

>  <m_score__min__energy>  (8) 
-15.32

>  <m_primary>  (8) 
energy

>  <minimizedAffinity>  (8) 
-8.09475

>  <minimizedRMSD>  (8) 
0.77919

>  <CNNscore>  (8) 
0.9338583350

>  <CNNaffinity>  (8) 
6.7206363678

>  <CNN_VS>  (8) 
6.2761220932

>  <CNNaffinity_variance>  (8) 
0.0657979846

$$$$
29:0
     RDKit          3D

 27 29  0  0  0  0  0  0  0  0999 V2000
   57.0285   30.3276   43.9345 S   0  0  0  0  0  0  0  0  0  0  0  0
   56.6433   30.0218   42.5142 O   0  0  0  0  0  0  0  0  0  0  0  0
   55.7887   30.5812   44.7430 O   0  0  0  0  0  0  0  0  0  0  0  0
   57.8791   26.7534   45.6509 C   0  0  0  0  0  0  0  0  0  0  0  0
   59.2542   26.8593   45.9012 C   0  0  0  0  0  0  0  0  0  0  0  0
   59.9494   28.0097   45.5167 C   0  0  0  0  0  0  0  0  0  0  0  0
   59.2738   29.0640   44.8965 C   0  0  0  0  0  0  0  0  0  0  0  0
   57.8997   28.9664   44.6395 C   0  0  0  0  0  0  0  0  0  0  0  0
   57.2132   27.7945   44.9928 C   0  0  0  0  0  0  0  0  0  0  0  0
   55.2907   25.6591   46.1235 N   0  0  0  0  0  0  0  0  0  0  0  0
   56.9851   25.3275   46.1666 S   0  0  0  0  0  0  0  0  0  0  0  0
   57.3879   24.9581   47.5669 O   0  0  0  0  0  0  0  0  0  0  0  0
   57.2936   24.1711   45.2567 O   0  0  0  0  0  0  0  0  0  0  0  0
   58.0224   31.7508   43.9547 N   0  0  0  0  0  0  0  0  0  0  0  0
   58.3977   32.4549   45.1451 C   0  0  0  0  0  0  0  0  0  0  0  0
   58.4921   31.7428   46.3474 C   0  0  0  0  0  0  0  0  0  0  0  0
   58.9881   32.3619   47.4980 C   0  0  0  0  0  0  0  0  0  0  0  0
   59.3733   33.7117   47.4660 C   0  0  0  0  0  0  0  0  0  0  0  0
   59.2333   34.4381   46.2737 C   0  0  0  0  0  0  0  0  0  0  0  0
   58.7406   33.8176   45.1228 C   0  0  0  0  0  0  0  0  0  0  0  0
   60.0339   34.3409   48.6606 C   0  0  0  0  0  0  0  0  0  0  0  0
   61.4459   33.8349   48.7825 C   0  0  0  0  0  0  0  0  0  0  0  0
   62.0610   33.7421   50.0408 C   0  0  0  0  0  0  0  0  0  0  0  0
   63.3917   33.3301   50.1288 C   0  0  0  0  0  0  0  0  0  0  0  0
   64.0891   33.0305   49.0008 N   0  0  0  0  0  0  0  0  0  0  0  0
   63.5229   33.1191   47.7686 C   0  0  0  0  0  0  0  0  0  0  0  0
   62.1934   33.5287   47.6349 C   0  0  0  0  0  0  0  0  0  0  0  0
 10 11  1  0
 11 12  2  0
 11 13  2  0
 11  4  1  0
  4  5  2  0
  5  6  1  0
  6  7  2  0
  7  8  1  0
  8  1  1  0
  1  2  2  0
  1  3  2  0
  1 14  1  0
 14 15  1  0
 15 16  2  0
 16 17  1  0
 17 18  2  0
 18 21  1  0
 21 22  1  0
 22 23  2  0
 23 24  1  0
 24 25  2  0
 25 26  1  0
 26 27  2  0
 18 19  1  0
 19 20  2  0
  8  9  2  0
  9  4  1  0
 20 15  1  0
 27 22  1  0
M  CHG  2  10  -1  14  -1
M  END
>  <UniqueID>  (9) 
29

>  <SMILES>  (9) 
[NH-]S(=O)(=O)c1cccc(S(=O)(=O)[N-]c2ccc(Cc3ccncc3)cc2)c1

>  <Energy>  (9) 
45.48383989565499

>  <Genealogy>  (9) 
[NH-]S(=O)(=O)c1cccc(S(=O)(=O)[N-]c2ccc(Cc3ccncc3)cc2)c1 (protonated)
[NH-]S(=O)(=O)c1cccc(S(=O)(=O)[N-]c2ccc(Cc3ccncc3)cc2)c1 (3D coordinates assigned)
[NH-]S(=O)(=O)c1cccc(S(=O)(=O)[N-]c2ccc(Cc3ccncc3)cc2)c1 (optimized conformer: 45.48383989565499 kcal/mol)

>  <smiles>  (9) 
NS(=O)(=O)c1cccc(S(=O)(=O)Nc2ccc(Cc3ccncc3)cc2)c1

>  <score_type>  (9) 
oracle

>  <origin>  (9) 
adg

>  <m_score__min__energy>  (9) 
-14.08

>  <m_primary>  (9) 
energy

>  <minimizedAffinity>  (9) 
-8.82922

>  <minimizedRMSD>  (9) 
0.50191

>  <CNNscore>  (9) 
0.9533738494

>  <CNNaffinity>  (9) 
7.6311783791

>  <CNN_VS>  (9) 
7.2753658295

>  <CNNaffinity_variance>  (9) 
0.0906388983

$$$$
69:0
     RDKit          3D

 24 25  0  0  0  0  0  0  0  0999 V2000
   57.4653   31.1761   44.5996 C   0  0  0  0  0  0  0  0  0  0  0  0
   58.6984   30.8606   44.8853 N   0  0  0  0  0  0  0  0  0  0  0  0
   55.4903   29.6195   44.8144 N   0  0  0  0  0  0  0  0  0  0  0  0
   56.5079   30.2117   44.0115 C   0  0  0  0  0  0  0  0  0  0  0  0
   56.5466   29.9588   42.7780 O   0  0  0  0  0  0  0  0  0  0  0  0
   59.1511   29.8562   45.8011 C   0  0  0  0  0  0  0  0  0  0  0  0
   59.0390   30.0731   47.0375 O   0  0  0  0  0  0  0  0  0  0  0  0
   59.9759   28.6892   45.3106 C   0  0  0  0  0  0  0  0  0  0  0  0
   59.1773   27.6651   44.4853 C   0  0  0  0  0  0  0  0  0  0  0  0
   58.4199   26.6994   45.3602 C   0  0  0  0  0  0  0  0  0  0  0  0
   59.0991   25.8745   46.2691 C   0  0  0  0  0  0  0  0  0  0  0  0
   58.3890   24.9924   47.0879 C   0  0  0  0  0  0  0  0  0  0  0  0
   56.9913   24.9253   47.0080 C   0  0  0  0  0  0  0  0  0  0  0  0
   56.2775   24.0483   47.8227 O   0  0  0  0  0  0  0  0  0  0  0  0
   56.3076   25.7483   46.1037 C   0  0  0  0  0  0  0  0  0  0  0  0
   54.9213   25.6918   46.0190 O   0  0  0  0  0  0  0  0  0  0  0  0
   57.0180   26.6328   45.2851 C   0  0  0  0  0  0  0  0  0  0  0  0
   56.9598   32.5213   45.0392 C   0  0  0  0  0  0  0  0  0  0  0  0
   58.0460   33.2744   45.7579 C   0  0  0  0  0  0  0  0  0  0  0  0
   58.9309   34.0975   45.0404 C   0  0  0  0  0  0  0  0  0  0  0  0
   59.9620   34.7697   45.7031 C   0  0  0  0  0  0  0  0  0  0  0  0
   60.1241   34.6163   47.0843 C   0  0  0  0  0  0  0  0  0  0  0  0
   59.2570   33.7897   47.8016 C   0  0  0  0  0  0  0  0  0  0  0  0
   58.2239   33.1174   47.1428 C   0  0  0  0  0  0  0  0  0  0  0  0
  3  4  1  0
  4  5  2  0
  4  1  1  0
  1 18  1  0
 18 19  1  0
 19 20  2  0
 20 21  1  0
 21 22  2  0
 22 23  1  0
 23 24  2  0
  1  2  2  0
  2  6  1  0
  6  7  2  0
  6  8  1  0
  8  9  1  0
  9 10  1  0
 10 11  2  0
 11 12  1  0
 12 13  2  0
 13 14  1  0
 13 15  1  0
 15 16  1  0
 15 17  2  0
 24 19  1  0
 17 10  1  0
M  CHG  2   3  -1  16  -1
M  END
>  <UniqueID>  (10) 
66

>  <SMILES>  (10) 
[NH-]C(=O)C(Cc1ccccc1)=NC(=O)CCc1ccc(O)c([O-])c1

>  <Energy>  (10) 
45.632764504000725

>  <Genealogy>  (10) 
[NH-]C(=O)C(Cc1ccccc1)=NC(=O)CCc1ccc(O)c([O-])c1 (protonated)
[NH-]C(=O)C(Cc1ccccc1)=NC(=O)CCc1ccc(O)c([O-])c1 (3D coordinates assigned)
[NH-]C(=O)C(Cc1ccccc1)=NC(=O)CCc1ccc(O)c([O-])c1 (optimized conformer: 45.632764504000725 kcal/mol)

>  <smiles>  (10) 
NC(=O)C(Cc1ccccc1)=NC(=O)CCc1ccc(O)c(O)c1

>  <score_type>  (10) 
oracle

>  <origin>  (10) 
adg

>  <m_score__min__energy>  (10) 
-15.33

>  <m_primary>  (10) 
energy

>  <minimizedAffinity>  (10) 
-7.72597

>  <minimizedRMSD>  (10) 
0.58893

>  <CNNscore>  (10) 
0.9112728834

>  <CNNaffinity>  (10) 
6.7991900444

>  <CNN_VS>  (10) 
6.1959176064

>  <CNNaffinity_variance>  (10) 
0.1288837343

$$$$
75:0
     RDKit          3D

 33 36  0  0  0  0  0  0  0  0999 V2000
   58.2174   31.6047   45.4215 N   0  0  0  0  0  0  0  0  0  0  0  0
   58.6684   32.8286   45.7546 C   0  0  0  0  0  0  0  0  0  0  0  0
   59.2149   32.7574   47.0168 C   0  0  0  0  0  0  0  0  0  0  0  0
   59.0493   31.4326   47.4018 C   0  0  0  0  0  0  0  0  0  0  0  0
   58.4342   30.7535   46.4119 N   0  0  0  0  0  0  0  0  0  0  0  0
   59.4401   30.8088   48.6742 C   0  0  0  0  0  0  0  0  0  0  0  0
   60.4998   29.8916   48.7245 C   0  0  0  0  0  0  0  0  0  0  0  0
   60.8790   29.3219   49.9436 C   0  0  0  0  0  0  0  0  0  0  0  0
   60.2143   29.6796   51.1201 C   0  0  0  0  0  0  0  0  0  0  0  0
   59.1740   30.6132   51.0804 C   0  0  0  0  0  0  0  0  0  0  0  0
   58.7942   31.1855   49.8625 C   0  0  0  0  0  0  0  0  0  0  0  0
   60.0076   34.0874   47.8693 S   0  0  0  0  0  0  0  0  0  0  0  0
   59.8738   35.3280   47.0330 O   0  0  0  0  0  0  0  0  0  0  0  0
   59.3258   34.3405   49.1836 O   0  0  0  0  0  0  0  0  0  0  0  0
   61.7025   33.7812   48.1604 N   0  0  0  0  0  0  0  0  0  0  0  0
   62.2538   32.8067   47.2197 C   0  0  0  0  0  0  0  0  0  0  0  0
   63.4208   32.1310   47.9256 C   0  0  0  0  0  0  0  0  0  0  0  0
   63.2519   32.4661   49.4011 C   0  0  0  0  0  0  0  0  0  0  0  0
   61.9372   33.2200   49.4872 C   0  0  0  0  0  0  0  0  0  0  0  0
   57.4308   31.2827   44.2359 C   0  0  0  0  0  0  0  0  0  0  0  0
   56.9527   29.8727   44.3443 C   0  0  0  0  0  0  0  0  0  0  0  0
   55.7299   29.6378   44.5441 O   0  0  0  0  0  0  0  0  0  0  0  0
   57.8594   28.7974   44.0937 N   0  0  0  0  0  0  0  0  0  0  0  0
   57.2393   25.6272   46.0044 C   0  0  0  0  0  0  0  0  0  0  0  0
   58.4868   25.4518   46.6180 C   0  0  0  0  0  0  0  0  0  0  0  0
   59.5103   26.3799   46.4028 C   0  0  0  0  0  0  0  0  0  0  0  0
   59.2924   27.4864   45.5764 C   0  0  0  0  0  0  0  0  0  0  0  0
   58.0415   27.6871   44.9810 C   0  0  0  0  0  0  0  0  0  0  0  0
   57.0163   26.7481   45.1945 C   0  0  0  0  0  0  0  0  0  0  0  0
   54.4427   25.1565   45.7720 N   0  0  0  0  0  0  0  0  0  0  0  0
   55.9530   24.4460   46.2223 S   0  0  0  0  0  0  0  0  0  0  0  0
   56.2003   23.2414   45.3560 O   0  0  0  0  0  0  0  0  0  0  0  0
   55.9046   24.0186   47.6627 O   0  0  0  0  0  0  0  0  0  0  0  0
 30 31  1  0
 31 32  2  0
 31 33  2  0
 31 24  1  0
 24 25  2  0
 25 26  1  0
 26 27  2  0
 27 28  1  0
 28 23  1  0
 23 21  1  0
 21 22  2  0
 21 20  1  0
 20  1  1  0
  1  2  1  0
  2  3  2  0
  3 12  1  0
 12 13  2  0
 12 14  2  0
 12 15  1  0
 15 16  1  0
 16 17  1  0
 17 18  1  0
 18 19  1  0
  3  4  1  0
  4  6  1  0
  6  7  2  0
  7  8  1  0
  8  9  2  0
  9 10  1  0
 10 11  2  0
  4  5  2  0
 28 29  2  0
 29 24  1  0
  5  1  1  0
 19 15  1  0
 11  6  1  0
M  CHG  2  23  -1  30  -1
M  END
>  <UniqueID>  (11) 
72

>  <SMILES>  (11) 
[NH-]S(=O)(=O)c1cccc([N-]C(=O)Cn2cc(S(=O)(=O)N3CCCC3)c(-c3ccccc3)n2)c1

>  <Energy>  (11) 
95.62359827352948

>  <Genealogy>  (11) 
[NH-]S(=O)(=O)c1cccc([N-]C(=O)Cn2cc(S(=O)(=O)N3CCCC3)c(-c3ccccc3)n2)c1 (protonated)
[NH-]S(=O)(=O)c1cccc([N-]C(=O)Cn2cc(S(=O)(=O)N3CCCC3)c(-c3ccccc3)n2)c1 (3D coordinates assigned)
[NH-]S(=O)(=O)c1cccc([N-]C(=O)Cn2cc(S(=O)(=O)N3CCCC3)c(-c3ccccc3)n2)c1 (nonaromatic ring conformer: 95.62359827352948 kcal/mol)

>  <smiles>  (11) 
NS(=O)(=O)c1cccc(NC(=O)Cn2cc(S(=O)(=O)N3CCCC3)c(-c3ccccc3)n2)c1

>  <score_type>  (11) 
oracle

>  <origin>  (11) 
adg

>  <m_score__min__energy>  (11) 
-14.220000000000001

>  <m_primary>  (11) 
energy

>  <minimizedAffinity>  (11) 
-8.26383

>  <minimizedRMSD>  (11) 
1.16025

>  <CNNscore>  (11) 
0.9048415422

>  <CNNaffinity>  (11) 
7.6492857933

>  <CNN_VS>  (11) 
6.9213914871

>  <CNNaffinity_variance>  (11) 
0.0374531634

$$$$
80:0
     RDKit          3D

 30 32  0  0  0  0  0  0  0  0999 V2000
   62.7222   31.0646   51.3438 C   0  0  0  0  0  0  0  0  0  0  0  0
   63.0993   30.4811   52.5659 C   0  0  0  0  0  0  0  0  0  0  0  0
   62.7140   29.1720   52.8648 C   0  0  0  0  0  0  0  0  0  0  0  0
   61.9226   28.4481   51.9679 C   0  0  0  0  0  0  0  0  0  0  0  0
   61.5096   29.0331   50.7614 C   0  0  0  0  0  0  0  0  0  0  0  0
   61.9514   30.3275   50.4409 C   0  0  0  0  0  0  0  0  0  0  0  0
   60.5749   28.3233   49.8625 C   0  0  0  0  0  0  0  0  0  0  0  0
   60.6321   27.0685   49.7683 O   0  0  0  0  0  0  0  0  0  0  0  0
   59.6163   29.0393   49.0705 N   0  0  0  0  0  0  0  0  0  0  0  0
   59.5133   28.9497   47.6411 C   0  0  0  0  0  0  0  0  0  0  0  0
   60.3004   28.0441   46.9086 C   0  0  0  0  0  0  0  0  0  0  0  0
   60.1564   27.9488   45.5221 C   0  0  0  0  0  0  0  0  0  0  0  0
   59.2316   28.7556   44.8569 C   0  0  0  0  0  0  0  0  0  0  0  0
   58.4579   29.6784   45.5734 C   0  0  0  0  0  0  0  0  0  0  0  0
   58.6100   29.7793   46.9654 C   0  0  0  0  0  0  0  0  0  0  0  0
   57.2672   30.6600   44.7282 S   0  0  0  0  0  0  0  0  0  0  0  0
   55.7606   29.8165   44.6759 N   0  0  0  0  0  0  0  0  0  0  0  0
   57.0788   31.9702   45.4382 O   0  0  0  0  0  0  0  0  0  0  0  0
   57.7411   30.9320   43.3276 O   0  0  0  0  0  0  0  0  0  0  0  0
   63.0641   32.4126   51.0070 N   0  0  0  0  0  0  0  0  0  0  0  0
   62.6386   33.1881   49.5157 S   0  0  0  0  0  0  0  0  0  0  0  0
   62.2780   34.6211   49.7872 O   0  0  0  0  0  0  0  0  0  0  0  0
   63.8306   33.1536   48.6022 O   0  0  0  0  0  0  0  0  0  0  0  0
   59.3551   35.0218   45.9048 C   0  0  0  0  0  0  0  0  0  0  0  0
   60.1389   34.3804   47.0564 C   0  0  0  0  0  0  0  0  0  0  0  0
   61.2936   33.4980   46.5223 C   0  0  0  0  0  0  0  0  0  0  0  0
   61.4704   32.1911   47.3149 C   0  0  0  0  0  0  0  0  0  0  0  0
   61.2828   32.3665   48.7699 N   0  0  0  0  0  0  0  0  0  0  0  0
   59.9837   32.9740   49.1524 C   0  0  0  0  0  0  0  0  0  0  0  0
   59.2023   33.5842   47.9737 C   0  0  0  0  0  0  0  0  0  0  0  0
 24 25  1  0
 25 26  1  0
 26 27  1  0
 27 28  1  0
 28 21  1  0
 21 22  2  0
 21 23  2  0
 21 20  1  0
 20  1  1  0
  1  2  2  0
  2  3  1  0
  3  4  2  0
  4  5  1  0
  5  7  1  0
  7  8  2  0
  7  9  1  0
  9 10  1  0
 10 11  2  0
 11 12  1  0
 12 13  2  0
 13 14  1  0
 14 16  1  0
 16 17  1  0
 16 18  2  0
 16 19  2  0
 14 15  2  0
  5  6  2  0
 28 29  1  0
 29 30  1  0
 30 25  1  0
  6  1  1  0
 15 10  1  0
M  CHG  3   9  -1  17  -1  20  -1
M  END
>  <UniqueID>  (12) 
67

>  <SMILES>  (12) 
CC1CCN(S(=O)(=O)[N-]c2cccc(C(=O)[N-]c3cccc(S([NH-])(=O)=O)c3)c2)CC1

>  <Energy>  (12) 
64.54013635181617

>  <Genealogy>  (12) 
CC1CCN(S(=O)(=O)[N-]c2cccc(C(=O)[N-]c3cccc(S([NH-])(=O)=O)c3)c2)CC1 (protonated)
CC1CCN(S(=O)(=O)[N-]c2cccc(C(=O)[N-]c3cccc(S([NH-])(=O)=O)c3)c2)CC1 (3D coordinates assigned)
CC1CCN(S(=O)(=O)[N-]c2cccc(C(=O)[N-]c3cccc(S([NH-])(=O)=O)c3)c2)CC1 (nonaromatic ring conformer: 64.54013635181617 kcal/mol)

>  <smiles>  (12) 
CC1CCN(S(=O)(=O)Nc2cccc(C(=O)Nc3cccc(S(N)(=O)=O)c3)c2)CC1

>  <score_type>  (12) 
oracle

>  <origin>  (12) 
adg

>  <m_score__min__energy>  (12) 
-15.35

>  <m_primary>  (12) 
energy

>  <minimizedAffinity>  (12) 
-7.98035

>  <minimizedRMSD>  (12) 
2.07610

>  <CNNscore>  (12) 
0.9414556623

>  <CNNaffinity>  (12) 
7.2333359718

>  <CNN_VS>  (12) 
6.8098649979

>  <CNNaffinity_variance>  (12) 
0.0092890924

$$$$
70:0
     RDKit          3D

 28 30  0  0  0  0  0  0  0  0999 V2000
   58.5294   32.7691   45.4078 C   0  0  0  0  0  0  0  0  0  0  0  0
   58.7784   34.0438   44.8639 C   0  0  0  0  0  0  0  0  0  0  0  0
   59.3194   35.0584   45.6582 C   0  0  0  0  0  0  0  0  0  0  0  0
   59.6210   34.8141   46.9992 C   0  0  0  0  0  0  0  0  0  0  0  0
   59.3898   33.5513   47.5533 C   0  0  0  0  0  0  0  0  0  0  0  0
   58.8431   32.5332   46.7589 C   0  0  0  0  0  0  0  0  0  0  0  0
   59.7501   33.2603   49.2556 S   0  0  0  0  0  0  0  0  0  0  0  0
   58.9806   32.0477   49.7011 O   0  0  0  0  0  0  0  0  0  0  0  0
   59.2922   34.4354   50.0757 O   0  0  0  0  0  0  0  0  0  0  0  0
   61.4628   32.9713   49.4860 N   0  0  0  0  0  0  0  0  0  0  0  0
   61.7205   31.6997   50.1840 C   0  0  0  0  0  0  0  0  0  0  0  0
   61.4807   30.4710   49.2755 C   0  0  0  0  0  0  0  0  0  0  0  0
   61.4667   30.7811   47.8923 O   0  0  0  0  0  0  0  0  0  0  0  0
   62.5010   31.6897   47.5866 C   0  0  0  0  0  0  0  0  0  0  0  0
   62.2077   33.0665   48.2110 C   0  0  0  0  0  0  0  0  0  0  0  0
   57.9452   31.6952   44.5702 C   0  0  0  0  0  0  0  0  0  0  0  0
   57.8873   31.8368   43.3177 O   0  0  0  0  0  0  0  0  0  0  0  0
   57.3972   30.5221   45.1875 N   0  0  0  0  0  0  0  0  0  0  0  0
   57.9218   26.8903   45.8640 C   0  0  0  0  0  0  0  0  0  0  0  0
   59.3187   26.8165   45.9406 C   0  0  0  0  0  0  0  0  0  0  0  0
   60.0902   27.9689   45.7677 C   0  0  0  0  0  0  0  0  0  0  0  0
   59.4750   29.1962   45.5136 C   0  0  0  0  0  0  0  0  0  0  0  0
   58.0733   29.2780   45.4180 C   0  0  0  0  0  0  0  0  0  0  0  0
   57.3044   28.1232   45.6170 C   0  0  0  0  0  0  0  0  0  0  0  0
   55.2687   25.8738   46.0733 N   0  0  0  0  0  0  0  0  0  0  0  0
   56.9418   25.4473   46.1096 S   0  0  0  0  0  0  0  0  0  0  0  0
   57.2700   24.8261   47.4379 O   0  0  0  0  0  0  0  0  0  0  0  0
   57.2307   24.4463   45.0254 O   0  0  0  0  0  0  0  0  0  0  0  0
 25 26  1  0
 26 27  2  0
 26 28  2  0
 26 19  1  0
 19 20  2  0
 20 21  1  0
 21 22  2  0
 22 23  1  0
 23 18  1  0
 18 16  1  0
 16 17  2  0
 16  1  1  0
  1  2  2  0
  2  3  1  0
  3  4  2  0
  4  5  1  0
  5  7  1  0
  7  8  2  0
  7  9  2  0
  7 10  1  0
 10 11  1  0
 11 12  1  0
 12 13  1  0
 13 14  1  0
 14 15  1  0
  5  6  2  0
 23 24  2  0
 24 19  1  0
  6  1  1  0
 15 10  1  0
M  CHG  2  18  -1  25  -1
M  END
>  <UniqueID>  (13) 
61

>  <SMILES>  (13) 
[NH-]S(=O)(=O)c1cccc([N-]C(=O)c2cccc(S(=O)(=O)N3CCOCC3)c2)c1

>  <Energy>  (13) 
61.11610298987246

>  <Genealogy>  (13) 
[NH-]S(=O)(=O)c1cccc([N-]C(=O)c2cccc(S(=O)(=O)N3CCOCC3)c2)c1 (protonated)
[NH-]S(=O)(=O)c1cccc([N-]C(=O)c2cccc(S(=O)(=O)N3CCOCC3)c2)c1 (3D coordinates assigned)
[NH-]S(=O)(=O)c1cccc([N-]C(=O)c2cccc(S(=O)(=O)N3CCOCC3)c2)c1 (nonaromatic ring conformer: 61.11610298987246 kcal/mol)

>  <smiles>  (13) 
NS(=O)(=O)c1cccc(NC(=O)c2cccc(S(=O)(=O)N3CCOCC3)c2)c1

>  <score_type>  (13) 
oracle

>  <origin>  (13) 
adg

>  <m_score__min__energy>  (13) 
-14.039999999999999

>  <m_primary>  (13) 
energy

>  <minimizedAffinity>  (13) 
-8.76614

>  <minimizedRMSD>  (13) 
0.82312

>  <CNNscore>  (13) 
0.9142090678

>  <CNNaffinity>  (13) 
7.1003098488

>  <CNN_VS>  (13) 
6.4911675453

>  <CNNaffinity_variance>  (13) 
0.0482775867

$$$$
45:0
     RDKit          3D

 27 30  0  0  0  0  0  0  0  0999 V2000
   59.2309   27.3928   46.8495 C   0  0  0  0  0  0  0  0  0  0  0  0
   59.2853   28.7152   46.3845 C   0  0  0  0  0  0  0  0  0  0  0  0
   58.2016   29.2744   45.6947 C   0  0  0  0  0  0  0  0  0  0  0  0
   57.0182   28.5345   45.5448 C   0  0  0  0  0  0  0  0  0  0  0  0
   55.9149   29.1070   44.9167 O   0  0  0  0  0  0  0  0  0  0  0  0
   56.9459   27.2161   46.0241 C   0  0  0  0  0  0  0  0  0  0  0  0
   55.7836   26.4595   45.8687 O   0  0  0  0  0  0  0  0  0  0  0  0
   58.0504   26.6470   46.6731 C   0  0  0  0  0  0  0  0  0  0  0  0
   57.9646   25.3428   47.1499 O   0  0  0  0  0  0  0  0  0  0  0  0
   58.2661   30.6751   45.2532 C   0  0  0  0  0  0  0  0  0  0  0  0
   58.3223   30.9069   44.0176 O   0  0  0  0  0  0  0  0  0  0  0  0
   58.2904   31.7900   46.1602 N   0  0  0  0  0  0  0  0  0  0  0  0
   59.3688   32.3248   47.0024 C   0  0  1  0  0  0  0  0  0  0  0  0
   60.6053   31.4094   46.8048 C   0  0  0  0  0  0  0  0  0  0  0  0
   61.7911   31.9102   47.6550 C   0  0  2  0  0  0  0  0  0  0  0  0
   61.3909   31.8990   49.1456 C   0  0  0  0  0  0  0  0  0  0  0  0
   60.1709   32.8202   49.3577 C   0  0  1  0  0  0  0  0  0  0  0  0
   60.5329   34.2592   48.9264 C   0  0  0  0  0  0  0  0  0  0  0  0
   60.9370   34.2706   47.4346 C   0  0  1  0  0  0  0  0  0  0  0  0
   62.1552   33.3470   47.2260 C   0  0  0  0  0  0  0  0  0  0  0  0
   59.7525   33.7673   46.5768 C   0  0  0  0  0  0  0  0  0  0  0  0
   58.9837   32.3135   48.5063 C   0  0  0  0  0  0  0  0  0  0  0  0
   60.4107   26.8137   47.5844 C   0  0  0  0  0  0  0  0  0  0  0  0
   60.4880   27.3875   48.9633 C   0  0  0  0  0  0  0  0  0  0  0  0
   60.8895   26.6706   49.9197 O   0  0  0  0  0  0  0  0  0  0  0  0
   59.8233   29.2193   50.4864 C   0  0  0  0  0  0  0  0  0  0  0  0
   60.0682   28.7019   49.1833 O   0  0  0  0  0  0  0  0  0  0  0  0
 26 27  1  0
 27 24  1  0
 24 25  2  0
 24 23  1  0
 23  1  1  0
  1  2  2  0
  2  3  1  0
  3 10  1  0
 10 11  2  0
 10 12  1  0
 13 12  1  6
 13 14  1  0
 15 14  1  6
 15 16  1  0
 17 16  1  6
 17 18  1  0
 19 18  1  1
 19 20  1  0
 19 21  1  0
 17 22  1  0
  3  4  2  0
  4  5  1  0
  4  6  1  0
  6  7  1  0
  6  8  2  0
  8  9  1  0
  8  1  1  0
 21 13  1  0
 22 13  1  0
 20 15  1  0
M  CHG  3   5  -1   9  -1  12  -1
M  END
>  <UniqueID>  (14) 
42

>  <SMILES>  (14) 
COC(=O)Cc1cc(C(=O)[N-]C23CC4CC(CC(C4)C2)C3)c([O-])c(O)c1[O-]

>  <Energy>  (14) 
54.83900275425474

>  <Genealogy>  (14) 
COC(=O)Cc1cc(C(=O)[N-]C23CC4CC(CC(C4)C2)C3)c([O-])c(O)c1[O-] (protonated)
COC(=O)Cc1cc(C(=O)[N-]C23CC4CC(CC(C4)C2)C3)c([O-])c(O)c1[O-] (3D coordinates assigned)
COC(=O)Cc1cc(C(=O)[N-]C23CC4CC(CC(C4)C2)C3)c([O-])c(O)c1[O-] (nonaromatic ring conformer: 54.83900275425474 kcal/mol)

>  <smiles>  (14) 
COC(=O)Cc1cc(C(=O)NC23CC4CC(CC(C4)C2)C3)c(O)c(O)c1O

>  <score_type>  (14) 
oracle

>  <origin>  (14) 
adg

>  <m_score__min__energy>  (14) 
-15.56

>  <m_primary>  (14) 
energy

>  <minimizedAffinity>  (14) 
-7.23309

>  <minimizedRMSD>  (14) 
1.30893

>  <CNNscore>  (14) 
0.9193492532

>  <CNNaffinity>  (14) 
7.0989308357

>  <CNN_VS>  (14) 
6.5263967514

>  <CNNaffinity_variance>  (14) 
0.3937152326

$$$$
42:0
     RDKit          3D

 28 30  0  0  0  0  0  0  0  0999 V2000
   58.0983   32.6572   45.7036 C   0  0  0  0  0  0  0  0  0  0  0  0
   58.4167   33.8154   44.9733 C   0  0  0  0  0  0  0  0  0  0  0  0
   59.3565   34.7215   45.4695 C   0  0  0  0  0  0  0  0  0  0  0  0
   59.9751   34.4875   46.6998 C   0  0  0  0  0  0  0  0  0  0  0  0
   59.6534   33.3464   47.4430 C   0  0  0  0  0  0  0  0  0  0  0  0
   58.7056   32.4384   46.9463 C   0  0  0  0  0  0  0  0  0  0  0  0
   60.4115   33.0792   49.0116 S   0  0  0  0  0  0  0  0  0  0  0  0
   61.0904   34.3401   49.4688 O   0  0  0  0  0  0  0  0  0  0  0  0
   59.3364   32.7346   50.0049 O   0  0  0  0  0  0  0  0  0  0  0  0
   61.5597   31.7572   48.9238 N   0  0  0  0  0  0  0  0  0  0  0  0
   62.1782   31.6510   47.5914 C   0  0  0  0  0  0  0  0  0  0  0  0
   63.2166   32.7703   47.3348 C   0  0  0  0  0  0  0  0  0  0  0  0
   63.6711   33.4041   48.5199 O   0  0  0  0  0  0  0  0  0  0  0  0
   63.9019   32.4464   49.5286 C   0  0  0  0  0  0  0  0  0  0  0  0
   62.5695   31.8365   50.0031 C   0  0  0  0  0  0  0  0  0  0  0  0
   57.1221   31.7148   45.2343 N   0  0  0  0  0  0  0  0  0  0  0  0
   57.3784   30.5767   44.3999 C   0  0  0  0  0  0  0  0  0  0  0  0
   56.9572   30.5929   43.2131 O   0  0  0  0  0  0  0  0  0  0  0  0
   57.9886   27.0613   45.6897 C   0  0  0  0  0  0  0  0  0  0  0  0
   59.3740   27.0823   45.8947 C   0  0  0  0  0  0  0  0  0  0  0  0
   60.1061   28.2384   45.6148 C   0  0  0  0  0  0  0  0  0  0  0  0
   59.4616   29.3785   45.1281 C   0  0  0  0  0  0  0  0  0  0  0  0
   58.0736   29.3693   44.9089 C   0  0  0  0  0  0  0  0  0  0  0  0
   57.3407   28.2081   45.2087 C   0  0  0  0  0  0  0  0  0  0  0  0
   55.3786   25.9979   46.1057 N   0  0  0  0  0  0  0  0  0  0  0  0
   57.0619   25.6111   46.0612 S   0  0  0  0  0  0  0  0  0  0  0  0
   57.3081   24.5658   45.0107 O   0  0  0  0  0  0  0  0  0  0  0  0
   57.4860   25.0632   47.3947 O   0  0  0  0  0  0  0  0  0  0  0  0
 25 26  1  0
 26 27  2  0
 26 28  2  0
 26 19  1  0
 19 20  2  0
 20 21  1  0
 21 22  2  0
 22 23  1  0
 23 17  1  0
 17 18  2  0
 17 16  1  0
 16  1  1  0
  1  2  2  0
  2  3  1  0
  3  4  2  0
  4  5  1  0
  5  7  1  0
  7  8  2  0
  7  9  2  0
  7 10  1  0
 10 11  1  0
 11 12  1  0
 12 13  1  0
 13 14  1  0
 14 15  1  0
  5  6  2  0
 23 24  2  0
 24 19  1  0
  6  1  1  0
 15 10  1  0
M  CHG  2  16  -1  25  -1
M  END
>  <UniqueID>  (15) 
38

>  <SMILES>  (15) 
[NH-]S(=O)(=O)c1cccc(C(=O)[N-]c2cccc(S(=O)(=O)N3CCOCC3)c2)c1

>  <Energy>  (15) 
63.762709655683395

>  <Genealogy>  (15) 
[NH-]S(=O)(=O)c1cccc(C(=O)[N-]c2cccc(S(=O)(=O)N3CCOCC3)c2)c1 (protonated)
[NH-]S(=O)(=O)c1cccc(C(=O)[N-]c2cccc(S(=O)(=O)N3CCOCC3)c2)c1 (3D coordinates assigned)
[NH-]S(=O)(=O)c1cccc(C(=O)[N-]c2cccc(S(=O)(=O)N3CCOCC3)c2)c1 (nonaromatic ring conformer: 63.762709655683395 kcal/mol)

>  <smiles>  (15) 
NS(=O)(=O)c1cccc(C(=O)Nc2cccc(S(=O)(=O)N3CCOCC3)c2)c1

>  <score_type>  (15) 
oracle

>  <origin>  (15) 
adg

>  <m_score__min__energy>  (15) 
-14.27

>  <m_primary>  (15) 
energy

>  <minimizedAffinity>  (15) 
-9.73665

>  <minimizedRMSD>  (15) 
0.58967

>  <CNNscore>  (15) 
0.9621697664

>  <CNNaffinity>  (15) 
7.3069005013

>  <CNN_VS>  (15) 
7.0304789543

>  <CNNaffinity_variance>  (15) 
0.0724136308

$$$$
77:0
     RDKit          3D

 30 32  0  0  0  0  0  0  0  0999 V2000
   59.7177   33.0909   47.4560 C   0  0  0  0  0  0  0  0  0  0  0  0
   60.2385   34.1830   46.7517 C   0  0  0  0  0  0  0  0  0  0  0  0
   59.6911   34.5469   45.5191 C   0  0  0  0  0  0  0  0  0  0  0  0
   58.6252   33.8204   44.9805 C   0  0  0  0  0  0  0  0  0  0  0  0
   58.1092   32.7066   45.6665 C   0  0  0  0  0  0  0  0  0  0  0  0
   58.6547   32.3572   46.9099 C   0  0  0  0  0  0  0  0  0  0  0  0
   60.3826   32.6522   49.0319 S   0  0  0  0  0  0  0  0  0  0  0  0
   61.4159   31.5751   48.8463 O   0  0  0  0  0  0  0  0  0  0  0  0
   61.0656   33.8498   49.6314 O   0  0  0  0  0  0  0  0  0  0  0  0
   56.3577   30.7570   52.7868 C   0  0  0  0  0  0  0  0  0  0  0  0
   57.3367   31.2517   51.8066 N   0  0  0  0  0  0  0  0  0  0  0  0
   58.2298   30.1555   51.3770 C   0  0  0  0  0  0  0  0  0  0  0  0
   59.3517   30.6727   50.4528 C   0  0  0  0  0  0  0  0  0  0  0  0
   59.1417   32.0917   50.1261 N   0  0  0  0  0  0  0  0  0  0  0  0
   59.1413   32.9031   51.3560 C   0  0  0  0  0  0  0  0  0  0  0  0
   58.1222   32.3603   52.3809 C   0  0  0  0  0  0  0  0  0  0  0  0
   56.9899   31.9565   45.1745 N   0  0  0  0  0  0  0  0  0  0  0  0
   57.0077   30.6184   44.6631 C   0  0  0  0  0  0  0  0  0  0  0  0
   55.9429   30.0634   44.2815 O   0  0  0  0  0  0  0  0  0  0  0  0
   58.2557   29.9198   44.6040 N   0  0  0  0  0  0  0  0  0  0  0  0
   58.5638   28.6804   45.2547 C   0  0  0  0  0  0  0  0  0  0  0  0
   59.8313   28.4281   45.8083 C   0  0  0  0  0  0  0  0  0  0  0  0
   60.0869   27.2138   46.4519 C   0  0  0  0  0  0  0  0  0  0  0  0
   59.0816   26.2512   46.5625 C   0  0  0  0  0  0  0  0  0  0  0  0
   57.8047   26.5053   46.0442 C   0  0  0  0  0  0  0  0  0  0  0  0
   57.5504   27.7214   45.3946 C   0  0  0  0  0  0  0  0  0  0  0  0
   56.5397   25.2870   46.1665 S   0  0  0  0  0  0  0  0  0  0  0  0
   54.9912   26.0230   45.9437 N   0  0  0  0  0  0  0  0  0  0  0  0
   56.5783   24.6469   47.5275 O   0  0  0  0  0  0  0  0  0  0  0  0
   56.7549   24.2375   45.1125 O   0  0  0  0  0  0  0  0  0  0  0  0
 10 11  1  0
 11 12  1  0
 12 13  1  0
 13 14  1  0
 14  7  1  0
  7  8  2  0
  7  9  2  0
  7  1  1  0
  1  2  2  0
  2  3  1  0
  3  4  2  0
  4  5  1  0
  5 17  1  0
 17 18  1  0
 18 19  2  0
 18 20  1  0
 20 21  1  0
 21 22  2  0
 22 23  1  0
 23 24  2  0
 24 25  1  0
 25 27  1  0
 27 28  1  0
 27 29  2  0
 27 30  2  0
 25 26  2  0
  5  6  2  0
 14 15  1  0
 15 16  1  0
 16 11  1  0
  6  1  1  0
 26 21  1  0
M  CHG  3  17  -1  20  -1  28  -1
M  END
>  <UniqueID>  (16) 
74

>  <SMILES>  (16) 
CN1CCN(S(=O)(=O)c2cccc([N-]C(=O)[N-]c3cccc(S([NH-])(=O)=O)c3)c2)CC1

>  <Energy>  (16) 
63.58604411339492

>  <Genealogy>  (16) 
CN1CCN(S(=O)(=O)c2cccc([N-]C(=O)[N-]c3cccc(S([NH-])(=O)=O)c3)c2)CC1 (protonated)
CN1CCN(S(=O)(=O)c2cccc([N-]C(=O)[N-]c3cccc(S([NH-])(=O)=O)c3)c2)CC1 (3D coordinates assigned)
CN1CCN(S(=O)(=O)c2cccc([N-]C(=O)[N-]c3cccc(S([NH-])(=O)=O)c3)c2)CC1 (nonaromatic ring conformer: 63.58604411339492 kcal/mol)

>  <smiles>  (16) 
CN1CCN(S(=O)(=O)c2cccc(NC(=O)Nc3cccc(S(N)(=O)=O)c3)c2)CC1

>  <score_type>  (16) 
oracle

>  <origin>  (16) 
adg

>  <m_score__min__energy>  (16) 
-15.300000000000001

>  <m_primary>  (16) 
energy

>  <minimizedAffinity>  (16) 
-9.40753

>  <minimizedRMSD>  (16) 
0.54553

>  <CNNscore>  (16) 
0.9213621020

>  <CNNaffinity>  (16) 
7.6038417816

>  <CNN_VS>  (16) 
7.0058917999

>  <CNNaffinity_variance>  (16) 
0.0820310712

$$$$
90:0
     RDKit          3D

 23 24  0  0  0  0  0  0  0  0999 V2000
   59.3077   29.3031   48.6966 C   0  0  0  0  0  0  0  0  0  0  0  0
   58.9960   29.2113   49.9140 O   0  0  0  0  0  0  0  0  0  0  0  0
   59.3878   28.0736   47.8733 C   0  0  0  0  0  0  0  0  0  0  0  0
   60.6280   27.5870   47.4249 C   0  0  0  0  0  0  0  0  0  0  0  0
   60.6927   26.4383   46.6327 C   0  0  0  0  0  0  0  0  0  0  0  0
   59.5221   25.7554   46.2906 C   0  0  0  0  0  0  0  0  0  0  0  0
   58.2806   26.2140   46.7502 C   0  0  0  0  0  0  0  0  0  0  0  0
   58.2176   27.3708   47.5404 C   0  0  0  0  0  0  0  0  0  0  0  0
   56.8042   25.3664   46.3062 S   0  0  0  0  0  0  0  0  0  0  0  0
   55.5557   26.5147   45.9784 N   0  0  0  0  0  0  0  0  0  0  0  0
   56.3755   24.4659   47.4314 O   0  0  0  0  0  0  0  0  0  0  0  0
   57.0440   24.5261   45.0826 O   0  0  0  0  0  0  0  0  0  0  0  0
   59.6171   30.5978   48.1613 N   0  0  0  0  0  0  0  0  0  0  0  0
   57.8080   30.9912   44.8897 C   0  0  0  0  0  0  0  0  0  0  0  0
   58.0061   32.3576   44.6567 C   0  0  0  0  0  0  0  0  0  0  0  0
   58.7209   33.1297   45.5763 C   0  0  0  0  0  0  0  0  0  0  0  0
   59.2475   32.5394   46.7281 C   0  0  0  0  0  0  0  0  0  0  0  0
   59.0703   31.1721   46.9653 C   0  0  0  0  0  0  0  0  0  0  0  0
   58.3234   30.4041   46.0536 C   0  0  0  0  0  0  0  0  0  0  0  0
   55.3484   29.6291   44.4212 N   0  0  0  0  0  0  0  0  0  0  0  0
   56.8911   30.0177   43.7445 S   0  0  0  0  0  0  0  0  0  0  0  0
   57.6392   28.7488   43.4454 O   0  0  0  0  0  0  0  0  0  0  0  0
   56.6998   30.7790   42.4629 O   0  0  0  0  0  0  0  0  0  0  0  0
 20 21  1  0
 21 22  2  0
 21 23  2  0
 21 14  1  0
 14 15  2  0
 15 16  1  0
 16 17  2  0
 17 18  1  0
 18 13  1  0
 13  1  1  0
  1  2  2  0
  1  3  1  0
  3  4  2  0
  4  5  1  0
  5  6  2  0
  6  7  1  0
  7  9  1  0
  9 10  1  0
  9 11  2  0
  9 12  2  0
  7  8  2  0
 18 19  2  0
 19 14  1  0
  8  3  1  0
M  CHG  3  10  -1  13  -1  20  -1
M  END
>  <UniqueID>  (17) 
85

>  <SMILES>  (17) 
[NH-]S(=O)(=O)c1cccc([N-]C(=O)c2cccc(S([NH-])(=O)=O)c2)c1

>  <Energy>  (17) 
39.356651368936156

>  <Genealogy>  (17) 
[NH-]S(=O)(=O)c1cccc([N-]C(=O)c2cccc(S([NH-])(=O)=O)c2)c1 (protonated)
[NH-]S(=O)(=O)c1cccc([N-]C(=O)c2cccc(S([NH-])(=O)=O)c2)c1 (3D coordinates assigned)
[NH-]S(=O)(=O)c1cccc([N-]C(=O)c2cccc(S([NH-])(=O)=O)c2)c1 (optimized conformer: 39.356651368936156 kcal/mol)

>  <smiles>  (17) 
NS(=O)(=O)c1cccc(NC(=O)c2cccc(S(N)(=O)=O)c2)c1

>  <score_type>  (17) 
oracle

>  <origin>  (17) 
adg

>  <m_score__min__energy>  (17) 
-14.32

>  <m_primary>  (17) 
energy

>  <minimizedAffinity>  (17) 
-7.50500

>  <minimizedRMSD>  (17) 
0.34879

>  <CNNscore>  (17) 
0.9486221075

>  <CNNaffinity>  (17) 
6.6791992188

>  <CNN_VS>  (17) 
6.3360362053

>  <CNNaffinity_variance>  (17) 
0.0780841932

$$$$
14:0
     RDKit          3D

 23 24  0  0  0  0  0  0  0  0999 V2000
   57.7935   30.9913   44.9420 C   0  0  0  0  0  0  0  0  0  0  0  0
   56.5338   30.9856   44.9139 O   0  0  0  0  0  0  0  0  0  0  0  0
   59.9916   33.1509   47.1532 C   0  0  0  0  0  0  0  0  0  0  0  0
   59.8738   34.3956   46.5226 C   0  0  0  0  0  0  0  0  0  0  0  0
   59.0827   34.5316   45.3808 C   0  0  0  0  0  0  0  0  0  0  0  0
   58.4024   33.4262   44.8622 C   0  0  0  0  0  0  0  0  0  0  0  0
   58.5029   32.1715   45.4883 C   0  0  0  0  0  0  0  0  0  0  0  0
   59.3161   32.0401   46.6280 C   0  0  0  0  0  0  0  0  0  0  0  0
   60.1769   32.0332   49.7675 N   0  0  0  0  0  0  0  0  0  0  0  0
   61.0068   32.9752   48.5820 S   0  0  0  0  0  0  0  0  0  0  0  0
   61.3232   34.3303   49.1513 O   0  0  0  0  0  0  0  0  0  0  0  0
   62.2959   32.2958   48.2129 O   0  0  0  0  0  0  0  0  0  0  0  0
   58.4937   29.8253   44.4867 N   0  0  0  0  0  0  0  0  0  0  0  0
   58.7907   28.6553   45.2659 C   0  0  0  0  0  0  0  0  0  0  0  0
   60.1111   28.3500   45.6297 C   0  0  0  0  0  0  0  0  0  0  0  0
   60.3912   27.2058   46.3718 C   0  0  0  0  0  0  0  0  0  0  0  0
   59.3628   26.3432   46.7467 C   0  0  0  0  0  0  0  0  0  0  0  0
   58.0312   26.6082   46.3763 C   0  0  0  0  0  0  0  0  0  0  0  0
   57.7474   27.7751   45.6237 C   0  0  0  0  0  0  0  0  0  0  0  0
   56.4332   28.0551   45.2415 O   0  0  0  0  0  0  0  0  0  0  0  0
   56.9603   25.6613   46.7848 C   0  0  0  0  0  0  0  0  0  0  0  0
   57.1988   24.7576   47.6289 O   0  0  0  0  0  0  0  0  0  0  0  0
   55.6802   25.7492   46.2512 O   0  0  0  0  0  0  0  0  0  0  0  0
  9 10  1  0
 10 11  2  0
 10 12  2  0
 10  3  1  0
  3  4  2  0
  4  5  1  0
  5  6  2  0
  6  7  1  0
  7  1  1  0
  1  2  2  0
  1 13  1  0
 13 14  1  0
 14 15  2  0
 15 16  1  0
 16 17  2  0
 17 18  1  0
 18 21  1  0
 21 22  2  0
 21 23  1  0
 18 19  2  0
 19 20  1  0
  7  8  2  0
  8  3  1  0
 19 14  1  0
M  CHG  3   9  -1  13  -1  23  -1
M  END
>  <UniqueID>  (18) 
12

>  <SMILES>  (18) 
[NH-]S(=O)(=O)c1cccc(C(=O)[N-]c2cccc(C(=O)[O-])c2O)c1

>  <Energy>  (18) 
42.515357429048194

>  <Genealogy>  (18) 
[NH-]S(=O)(=O)c1cccc(C(=O)[N-]c2cccc(C(=O)[O-])c2O)c1 (protonated)
[NH-]S(=O)(=O)c1cccc(C(=O)[N-]c2cccc(C(=O)[O-])c2O)c1 (3D coordinates assigned)
[NH-]S(=O)(=O)c1cccc(C(=O)[N-]c2cccc(C(=O)[O-])c2O)c1 (optimized conformer: 42.515357429048194 kcal/mol)

>  <smiles>  (18) 
NS(=O)(=O)c1cccc(C(=O)Nc2cccc(C(=O)O)c2O)c1

>  <score_type>  (18) 
oracle

>  <origin>  (18) 
adg

>  <m_score__min__energy>  (18) 
-14.35

>  <m_primary>  (18) 
energy

>  <minimizedAffinity>  (18) 
-8.75051

>  <minimizedRMSD>  (18) 
1.26718

>  <CNNscore>  (18) 
0.9457079172

>  <CNNaffinity>  (18) 
6.8185830116

>  <CNN_VS>  (18) 
6.4483880997

>  <CNNaffinity_variance>  (18) 
0.4681696594

$$$$
81:0
     RDKit          3D

 24 26  0  0  0  0  0  0  0  0999 V2000
   59.3830   34.4116   45.9327 C   0  0  0  0  0  0  0  0  0  0  0  0
   58.0078   33.9873   45.0579 S   0  0  0  0  0  0  0  0  0  0  0  0
   58.0180   32.4082   45.6212 C   0  0  0  0  0  0  0  0  0  0  0  0
   57.1506   31.5094   45.2628 N   0  0  0  0  0  0  0  0  0  0  0  0
   59.0559   32.1719   46.4543 N   0  0  0  0  0  0  0  0  0  0  0  0
   59.8145   33.2854   46.6365 C   0  0  0  0  0  0  0  0  0  0  0  0
   61.0184   33.2732   47.5442 C   0  0  0  0  0  0  0  0  0  0  0  0
   62.3155   33.4121   46.7365 C   0  0  0  0  0  0  0  0  0  0  0  0
   63.5313   33.4590   47.6791 C   0  0  0  0  0  0  0  0  0  0  0  0
   63.4950   32.4496   48.7675 N   0  0  0  0  0  0  0  0  0  0  0  0
   62.4478   31.4200   48.6151 C   0  0  0  0  0  0  0  0  0  0  0  0
   61.0386   32.0197   48.4525 C   0  0  0  0  0  0  0  0  0  0  0  0
   63.4553   33.1900   50.3539 S   0  0  0  0  0  0  0  0  0  0  0  0
   62.6914   34.4837   50.3051 O   0  0  0  0  0  0  0  0  0  0  0  0
   64.8486   33.4598   50.8479 O   0  0  0  0  0  0  0  0  0  0  0  0
   62.6329   32.0997   51.4958 C   0  0  0  0  0  0  0  0  0  0  0  0
   57.4522   30.3113   44.5320 C   0  0  0  0  0  0  0  0  0  0  0  0
   56.9973   30.1847   43.3645 O   0  0  0  0  0  0  0  0  0  0  0  0
   58.2233   29.2000   45.1217 C   0  0  0  0  0  0  0  0  0  0  0  0
   57.6590   28.2351   45.8770 N   0  0  0  0  0  0  0  0  0  0  0  0
   58.6835   27.4470   46.2522 C   0  0  0  0  0  0  0  0  0  0  0  0
   58.5241   26.3190   47.0462 O   0  0  0  0  0  0  0  0  0  0  0  0
   59.8886   27.8929   45.7609 C   0  0  0  0  0  0  0  0  0  0  0  0
   59.5975   29.0293   45.0392 C   0  0  0  0  0  0  0  0  0  0  0  0
  1  2  1  0
  2  3  1  0
  3  4  2  0
  4 17  1  0
 17 18  2  0
 17 19  1  0
 19 20  1  0
 20 21  1  0
 21 22  1  0
 21 23  2  0
 23 24  1  0
  3  5  1  0
  5  6  1  0
  6  7  1  0
  7  8  1  0
  8  9  1  0
  9 10  1  0
 10 13  1  0
 13 14  2  0
 13 15  2  0
 13 16  1  0
 10 11  1  0
 11 12  1  0
  6  1  2  0
 12  7  1  0
 24 19  2  0
M  CHG  3   5  -1  20  -1  22  -1
M  END
>  <UniqueID>  (19) 
78

>  <SMILES>  (19) 
CS(=O)(=O)N1CCC(c2cs/c(=N/C(=O)c3ccc([O-])[n-]3)[n-]2)CC1

>  <Energy>  (19) 
103.76860049866536

>  <Genealogy>  (19) 
CS(=O)(=O)N1CCC(c2csc(=NC(=O)c3ccc([O-])[n-]3)[n-]2)CC1 (protonated)
CS(=O)(=O)N1CCC(c2cs/c(=N/C(=O)c3ccc([O-])[n-]3)[n-]2)CC1 (cis-trans isomerization)
CS(=O)(=O)N1CCC(c2cs/c(=N/C(=O)c3ccc([O-])[n-]3)[n-]2)CC1 (3D coordinates assigned)
CS(=O)(=O)N1CCC(c2cs/c(=N/C(=O)c3ccc([O-])[n-]3)[n-]2)CC1 (nonaromatic ring conformer: 103.76860049866536 kcal/mol)

>  <smiles>  (19) 
CS(=O)(=O)N1CCC(c2csc(=NC(=O)c3ccc(O)[nH]3)[nH]2)CC1

>  <score_type>  (19) 
oracle

>  <origin>  (19) 
adg

>  <m_score__min__energy>  (19) 
-15.460000000000001

>  <m_primary>  (19) 
energy

>  <minimizedAffinity>  (19) 
-7.77689

>  <minimizedRMSD>  (19) 
1.39533

>  <CNNscore>  (19) 
0.9010031223

>  <CNNaffinity>  (19) 
7.1109337807

>  <CNN_VS>  (19) 
6.4069733620

>  <CNNaffinity_variance>  (19) 
0.3300387561

$$$$
92:0
     RDKit          3D

 28 30  0  0  0  0  0  0  0  0999 V2000
   60.0922   28.4966   47.2879 C   0  0  0  0  0  0  0  0  0  0  0  0
   60.4063   27.7018   48.4029 C   0  0  0  0  0  0  0  0  0  0  0  0
   60.6199   28.2878   49.6529 C   0  0  0  0  0  0  0  0  0  0  0  0
   60.5228   29.6698   49.8022 C   0  0  0  0  0  0  0  0  0  0  0  0
   60.2115   30.4736   48.7039 C   0  0  0  0  0  0  0  0  0  0  0  0
   59.9887   29.8975   47.4407 C   0  0  0  0  0  0  0  0  0  0  0  0
   59.8297   27.8366   45.9511 C   0  0  0  0  0  0  0  0  0  0  0  0
   55.3451   24.5594   46.0949 O   0  0  0  0  0  0  0  0  0  0  0  0
   56.3720   25.2889   46.0759 C   0  0  0  0  0  0  0  0  0  0  0  0
   56.2417   26.6277   45.8789 N   0  0  0  0  0  0  0  0  0  0  0  0
   57.3165   27.4617   45.8482 C   0  0  0  0  0  0  0  0  0  0  0  0
   57.1246   28.8272   45.6525 O   0  0  0  0  0  0  0  0  0  0  0  0
   58.6146   26.9428   46.0211 C   0  0  0  0  0  0  0  0  0  0  0  0
   58.7599   25.5608   46.2284 C   0  0  0  0  0  0  0  0  0  0  0  0
   57.6399   24.7308   46.2551 C   0  0  0  0  0  0  0  0  0  0  0  0
   57.7908   23.3624   46.4564 O   0  0  0  0  0  0  0  0  0  0  0  0
   59.6635   30.7025   46.3000 N   0  0  0  0  0  0  0  0  0  0  0  0
   58.5560   32.0348   46.2779 S   0  0  0  0  0  0  0  0  0  0  0  0
   57.9934   32.2578   47.6542 O   0  0  0  0  0  0  0  0  0  0  0  0
   57.4418   31.7538   45.3089 O   0  0  0  0  0  0  0  0  0  0  0  0
   59.4295   33.4927   45.7365 C   0  0  0  0  0  0  0  0  0  0  0  0
   59.7430   34.4115   46.9199 C   0  0  0  0  0  0  0  0  0  0  0  0
   60.9888   33.9507   47.6289 C   0  0  0  0  0  0  0  0  0  0  0  0
   62.0637   33.4134   46.9017 C   0  0  0  0  0  0  0  0  0  0  0  0
   63.2040   32.9517   47.5693 C   0  0  0  0  0  0  0  0  0  0  0  0
   63.2727   33.0100   48.9628 C   0  0  0  0  0  0  0  0  0  0  0  0
   62.2015   33.5328   49.6937 C   0  0  0  0  0  0  0  0  0  0  0  0
   61.0625   34.0004   49.0315 C   0  0  0  0  0  0  0  0  0  0  0  0
  8  9  2  0
  9 10  1  0
 10 11  1  0
 11 12  1  0
 11 13  2  0
 13  7  1  0
  7  1  1  0
  1  2  2  0
  2  3  1  0
  3  4  2  0
  4  5  1  0
  5  6  2  0
  6 17  1  0
 17 18  1  0
 18 19  2  0
 18 20  2  0
 18 21  1  0
 21 22  1  0
 22 23  1  0
 23 24  2  0
 24 25  1  0
 25 26  2  0
 26 27  1  0
 27 28  2  0
 13 14  1  0
 14 15  2  0
 15 16  1  0
 15  9  1  0
  6  1  1  0
 28 23  1  0
M  CHG  3  10  -1  16  -1  17  -1
M  END
>  <UniqueID>  (20) 
89

>  <SMILES>  (20) 
O=c1[n-]c(O)c(Cc2ccccc2[N-]S(=O)(=O)CCc2ccccc2)cc1[O-]

>  <Energy>  (20) 
42.8816078524376

>  <Genealogy>  (20) 
O=c1[n-]c(O)c(Cc2ccccc2[N-]S(=O)(=O)CCc2ccccc2)cc1[O-] (protonated)
O=c1[n-]c(O)c(Cc2ccccc2[N-]S(=O)(=O)CCc2ccccc2)cc1[O-] (3D coordinates assigned)
O=c1[n-]c(O)c(Cc2ccccc2[N-]S(=O)(=O)CCc2ccccc2)cc1[O-] (optimized conformer: 42.8816078524376 kcal/mol)

>  <smiles>  (20) 
O=c1[nH]c(O)c(Cc2ccccc2NS(=O)(=O)CCc2ccccc2)cc1O

>  <score_type>  (20) 
oracle

>  <origin>  (20) 
adg

>  <m_score__min__energy>  (20) 
-15.92

>  <m_primary>  (20) 
energy

>  <minimizedAffinity>  (20) 
-8.47438

>  <minimizedRMSD>  (20) 
1.52250

>  <CNNscore>  (20) 
0.9475260973

>  <CNNaffinity>  (20) 
6.9498252869

>  <CNN_VS>  (20) 
6.5851407051

>  <CNNaffinity_variance>  (20) 
0.0213114563

$$$$
23:0
     RDKit          3D

 26 28  0  0  0  0  0  0  0  0999 V2000
   57.8655   31.5329   43.5988 N   0  0  0  0  0  0  0  0  0  0  0  0
   57.2051   30.4594   44.2819 C   0  0  0  0  0  0  0  0  0  0  0  0
   55.9629   30.5405   44.4734 O   0  0  0  0  0  0  0  0  0  0  0  0
   57.9120   27.0125   45.6736 C   0  0  0  0  0  0  0  0  0  0  0  0
   59.2963   27.0762   45.8768 C   0  0  0  0  0  0  0  0  0  0  0  0
   60.0006   28.2359   45.5467 C   0  0  0  0  0  0  0  0  0  0  0  0
   59.3281   29.3408   45.0200 C   0  0  0  0  0  0  0  0  0  0  0  0
   57.9377   29.2967   44.8262 C   0  0  0  0  0  0  0  0  0  0  0  0
   57.2391   28.1162   45.1298 C   0  0  0  0  0  0  0  0  0  0  0  0
   55.3376   25.8718   46.1065 N   0  0  0  0  0  0  0  0  0  0  0  0
   57.0332   25.5416   46.0776 S   0  0  0  0  0  0  0  0  0  0  0  0
   57.4635   25.0324   47.4262 O   0  0  0  0  0  0  0  0  0  0  0  0
   57.3227   24.4836   45.0494 O   0  0  0  0  0  0  0  0  0  0  0  0
   58.2934   32.7894   44.2051 C   0  0  0  0  0  0  0  0  0  0  0  0
   57.7543   32.8806   45.6013 C   0  0  0  0  0  0  0  0  0  0  0  0
   56.7671   33.6307   45.8254 O   0  0  0  0  0  0  0  0  0  0  0  0
   58.3649   32.1933   46.7026 N   0  0  0  0  0  0  0  0  0  0  0  0
   59.5038   32.6322   47.4550 C   0  0  0  0  0  0  0  0  0  0  0  0
   59.3208   33.5857   48.4756 C   0  0  0  0  0  0  0  0  0  0  0  0
   60.4128   34.0388   49.2301 C   0  0  0  0  0  0  0  0  0  0  0  0
   61.6799   33.5145   48.9611 C   0  0  0  0  0  0  0  0  0  0  0  0
   61.8600   32.5616   47.9928 C   0  0  0  0  0  0  0  0  0  0  0  0
   60.7870   32.0914   47.2325 C   0  0  0  0  0  0  0  0  0  0  0  0
   63.2708   32.1262   47.8953 C   0  0  0  0  0  0  0  0  0  0  0  0
   64.0065   33.0073   48.9235 C   0  0  0  0  0  0  0  0  0  0  0  0
   62.9453   33.8606   49.6460 C   0  0  0  0  0  0  0  0  0  0  0  0
 10 11  1  0
 11 12  2  0
 11 13  2  0
 11  4  1  0
  4  5  2  0
  5  6  1  0
  6  7  2  0
  7  8  1  0
  8  2  1  0
  2  3  2  0
  2  1  1  0
  1 14  1  0
 14 15  1  0
 15 16  2  0
 15 17  1  0
 17 18  1  0
 18 19  2  0
 19 20  1  0
 20 21  2  0
 21 22  1  0
 22 23  2  0
 22 24  1  0
 24 25  1  0
 25 26  1  0
  8  9  2  0
  9  4  1  0
 23 18  1  0
 26 21  1  0
M  CHG  3   1  -1  10  -1  17  -1
M  END
>  <UniqueID>  (21) 
21

>  <SMILES>  (21) 
[NH-]S(=O)(=O)c1cccc(C(=O)[N-]CC(=O)[N-]c2ccc3c(c2)CCC3)c1

>  <Energy>  (21) 
55.82141271653918

>  <Genealogy>  (21) 
[NH-]S(=O)(=O)c1cccc(C(=O)[N-]CC(=O)[N-]c2ccc3c(c2)CCC3)c1 (protonated)
[NH-]S(=O)(=O)c1cccc(C(=O)[N-]CC(=O)[N-]c2ccc3c(c2)CCC3)c1 (3D coordinates assigned)
[NH-]S(=O)(=O)c1cccc(C(=O)[N-]CC(=O)[N-]c2ccc3c(c2)CCC3)c1 (nonaromatic ring conformer: 55.82141271653918 kcal/mol)

>  <smiles>  (21) 
NS(=O)(=O)c1cccc(C(=O)NCC(=O)Nc2ccc3c(c2)CCC3)c1

>  <score_type>  (21) 
oracle

>  <origin>  (21) 
adg

>  <m_score__min__energy>  (21) 
-14.76

>  <m_primary>  (21) 
energy

>  <minimizedAffinity>  (21) 
-8.64131

>  <minimizedRMSD>  (21) 
0.50916

>  <CNNscore>  (21) 
0.9155695438

>  <CNNaffinity>  (21) 
7.1823825836

>  <CNN_VS>  (21) 
6.5759706497

>  <CNNaffinity_variance>  (21) 
0.2765057087

$$$$
59:0
     RDKit          3D

 22 23  0  0  0  0  0  0  0  0999 V2000
   60.5652   30.0728   47.6804 C   0  0  0  0  0  0  0  0  0  0  0  0
   60.1269   29.5139   48.7206 O   0  0  0  0  0  0  0  0  0  0  0  0
   59.1906   26.1610   46.0593 C   0  0  0  0  0  0  0  0  0  0  0  0
   59.9351   27.2728   46.2924 N   0  0  0  0  0  0  0  0  0  0  0  0
   59.4096   28.5239   46.1629 C   0  0  0  0  0  0  0  0  0  0  0  0
   60.1236   29.5866   46.4021 N   0  0  0  0  0  0  0  0  0  0  0  0
   58.0598   28.6556   45.8008 C   0  0  0  0  0  0  0  0  0  0  0  0
   57.5284   29.7935   45.6854 O   0  0  0  0  0  0  0  0  0  0  0  0
   57.3167   27.5407   45.5688 N   0  0  0  0  0  0  0  0  0  0  0  0
   57.8530   26.2987   45.6875 C   0  0  0  0  0  0  0  0  0  0  0  0
   57.0712   25.1762   45.4438 O   0  0  0  0  0  0  0  0  0  0  0  0
   61.4739   31.2657   47.8252 C   0  0  0  0  0  0  0  0  0  0  0  0
   61.3341   31.8425   49.1644 N   0  0  0  0  0  0  0  0  0  0  0  0
   60.6704   33.4493   49.0839 S   0  0  0  0  0  0  0  0  0  0  0  0
   61.7919   34.4516   49.1034 O   0  0  0  0  0  0  0  0  0  0  0  0
   59.8050   33.6850   50.2897 O   0  0  0  0  0  0  0  0  0  0  0  0
   59.6981   33.6632   47.6289 C   0  0  0  0  0  0  0  0  0  0  0  0
   60.2054   34.3778   46.5314 C   0  0  0  0  0  0  0  0  0  0  0  0
   59.4442   34.5069   45.3664 C   0  0  0  0  0  0  0  0  0  0  0  0
   58.1773   33.9220   45.2889 C   0  0  0  0  0  0  0  0  0  0  0  0
   57.6684   33.2090   46.3782 C   0  0  0  0  0  0  0  0  0  0  0  0
   58.4265   33.0778   47.5461 C   0  0  0  0  0  0  0  0  0  0  0  0
  3  4  1  0
  4  5  1  0
  5  6  2  0
  6  1  1  0
  1  2  2  0
  1 12  1  0
 12 13  1  0
 13 14  1  0
 14 15  2  0
 14 16  2  0
 14 17  1  0
 17 18  2  0
 18 19  1  0
 19 20  2  0
 20 21  1  0
 21 22  2  0
  5  7  1  0
  7  8  2  0
  7  9  1  0
  9 10  1  0
 10 11  1  0
 10  3  2  0
 22 17  1  0
M  CHG  4   4  -1   9  -1  11  -1  13  -1
M  END
>  <UniqueID>  (22) 
57

>  <SMILES>  (22) 
O=C(C[N-]S(=O)(=O)c1ccccc1)/N=c1\[n-]cc([O-])[n-]c1=O

>  <Energy>  (22) 
35.43861614009032

>  <Genealogy>  (22) 
O=C(C[N-]S(=O)(=O)c1ccccc1)N=c1[n-]cc([O-])[n-]c1=O (protonated)
O=C(C[N-]S(=O)(=O)c1ccccc1)/N=c1\[n-]cc([O-])[n-]c1=O (cis-trans isomerization)
O=C(C[N-]S(=O)(=O)c1ccccc1)/N=c1\[n-]cc([O-])[n-]c1=O (3D coordinates assigned)
O=C(C[N-]S(=O)(=O)c1ccccc1)/N=c1\[n-]cc([O-])[n-]c1=O (optimized conformer: 35.43861614009032 kcal/mol)

>  <smiles>  (22) 
O=C(CNS(=O)(=O)c1ccccc1)N=c1[nH]cc(O)[nH]c1=O

>  <score_type>  (22) 
oracle

>  <origin>  (22) 
adg

>  <m_score__min__energy>  (22) 
-15.57

>  <m_primary>  (22) 
energy

>  <minimizedAffinity>  (22) 
-7.16115

>  <minimizedRMSD>  (22) 
1.26578

>  <CNNscore>  (22) 
0.9245870709

>  <CNNaffinity>  (22) 
6.4804673195

>  <CNN_VS>  (22) 
5.9917564392

>  <CNNaffinity_variance>  (22) 
0.2108015269

$$$$
72:0
     RDKit          3D

 28 30  0  0  0  0  0  0  0  0999 V2000
   58.2625   32.6898   45.8246 C   0  0  0  0  0  0  0  0  0  0  0  0
   58.3884   33.7013   44.8555 C   0  0  0  0  0  0  0  0  0  0  0  0
   59.2112   34.7464   45.2502 C   0  0  0  0  0  0  0  0  0  0  0  0
   59.7617   34.4268   46.8047 S   0  0  0  0  0  0  0  0  0  0  0  0
   58.9647   32.9565   46.9981 C   0  0  0  0  0  0  0  0  0  0  0  0
   59.0404   32.1163   48.2046 C   0  0  0  0  0  0  0  0  0  0  0  0
   58.4187   32.4479   49.2500 O   0  0  0  0  0  0  0  0  0  0  0  0
   59.8200   30.9191   48.1837 N   0  0  0  0  0  0  0  0  0  0  0  0
   61.0953   30.8176   47.4878 C   0  0  0  0  0  0  0  0  0  0  0  0
   62.1404   31.5708   48.2557 C   0  0  0  0  0  0  0  0  0  0  0  0
   62.9222   32.5507   47.6264 C   0  0  0  0  0  0  0  0  0  0  0  0
   63.8628   33.2721   48.3644 C   0  0  0  0  0  0  0  0  0  0  0  0
   64.0059   33.0165   49.7289 C   0  0  0  0  0  0  0  0  0  0  0  0
   63.2271   32.0773   50.3299 N   0  0  0  0  0  0  0  0  0  0  0  0
   62.3059   31.3585   49.6337 C   0  0  0  0  0  0  0  0  0  0  0  0
   57.4615   31.5118   45.6505 N   0  0  0  0  0  0  0  0  0  0  0  0
   57.6997   30.4640   44.7002 C   0  0  0  0  0  0  0  0  0  0  0  0
   57.3568   30.6476   43.5026 O   0  0  0  0  0  0  0  0  0  0  0  0
   58.0027   26.8247   45.7435 C   0  0  0  0  0  0  0  0  0  0  0  0
   59.3918   26.6988   45.8753 C   0  0  0  0  0  0  0  0  0  0  0  0
   60.2227   27.7877   45.6033 C   0  0  0  0  0  0  0  0  0  0  0  0
   59.6724   29.0121   45.2136 C   0  0  0  0  0  0  0  0  0  0  0  0
   58.2802   29.1588   45.0962 C   0  0  0  0  0  0  0  0  0  0  0  0
   57.4530   28.0484   45.3404 C   0  0  0  0  0  0  0  0  0  0  0  0
   55.2926   26.0154   46.0914 N   0  0  0  0  0  0  0  0  0  0  0  0
   56.9343   25.4715   46.0980 S   0  0  0  0  0  0  0  0  0  0  0  0
   57.2524   24.8975   47.4515 O   0  0  0  0  0  0  0  0  0  0  0  0
   57.1172   24.4015   45.0588 O   0  0  0  0  0  0  0  0  0  0  0  0
 25 26  1  0
 26 27  2  0
 26 28  2  0
 26 19  1  0
 19 20  2  0
 20 21  1  0
 21 22  2  0
 22 23  1  0
 23 17  1  0
 17 18  2  0
 17 16  1  0
 16  1  1  0
  1  2  1  0
  2  3  2  0
  3  4  1  0
  4  5  1  0
  5  6  1  0
  6  7  2  0
  6  8  1  0
  8  9  1  0
  9 10  1  0
 10 11  2  0
 11 12  1  0
 12 13  2  0
 13 14  1  0
 14 15  2  0
 23 24  2  0
 24 19  1  0
  5  1  2  0
 15 10  1  0
M  CHG  3   8  -1  16  -1  25  -1
M  END
>  <UniqueID>  (23) 
65

>  <SMILES>  (23) 
[NH-]S(=O)(=O)c1cccc(C(=O)[N-]c2ccsc2C(=O)[N-]Cc2cccnc2)c1

>  <Energy>  (23) 
72.77308989060184

>  <Genealogy>  (23) 
[NH-]S(=O)(=O)c1cccc(C(=O)[N-]c2ccsc2C(=O)[N-]Cc2cccnc2)c1 (protonated)
[NH-]S(=O)(=O)c1cccc(C(=O)[N-]c2ccsc2C(=O)[N-]Cc2cccnc2)c1 (3D coordinates assigned)
[NH-]S(=O)(=O)c1cccc(C(=O)[N-]c2ccsc2C(=O)[N-]Cc2cccnc2)c1 (optimized conformer: 72.77308989060184 kcal/mol)

>  <smiles>  (23) 
NS(=O)(=O)c1cccc(C(=O)Nc2ccsc2C(=O)NCc2cccnc2)c1

>  <score_type>  (23) 
oracle

>  <origin>  (23) 
adg

>  <m_score__min__energy>  (23) 
-14.18

>  <m_primary>  (23) 
energy

>  <minimizedAffinity>  (23) 
-8.45310

>  <minimizedRMSD>  (23) 
0.66324

>  <CNNscore>  (23) 
0.9592191577

>  <CNNaffinity>  (23) 
7.8566341400

>  <CNN_VS>  (23) 
7.5362339020

>  <CNNaffinity_variance>  (23) 
0.1645017117

$$$$
83:0
     RDKit          3D

 30 32  0  0  0  0  0  0  0  0999 V2000
   57.7097   31.3899   44.8402 C   0  0  0  0  0  0  0  0  0  0  0  0
   58.1481   31.2005   46.1605 C   0  0  0  0  0  0  0  0  0  0  0  0
   58.7025   32.2408   46.8465 N   0  0  0  0  0  0  0  0  0  0  0  0
   58.8772   33.4728   46.2977 C   0  0  0  0  0  0  0  0  0  0  0  0
   59.3675   34.4213   47.0476 N   0  0  0  0  0  0  0  0  0  0  0  0
   58.4981   33.6847   44.9594 C   0  0  0  0  0  0  0  0  0  0  0  0
   57.9131   32.6393   44.2353 C   0  0  0  0  0  0  0  0  0  0  0  0
   55.5052   29.5861   44.7098 N   0  0  0  0  0  0  0  0  0  0  0  0
   56.9821   30.0588   43.9342 S   0  0  0  0  0  0  0  0  0  0  0  0
   57.9389   28.9005   43.8927 O   0  0  0  0  0  0  0  0  0  0  0  0
   56.6726   30.4854   42.5238 O   0  0  0  0  0  0  0  0  0  0  0  0
   58.0020   29.9501   46.7752 O   0  0  0  0  0  0  0  0  0  0  0  0
   59.0526   29.0480   46.9496 C   0  0  0  0  0  0  0  0  0  0  0  0
   60.1854   29.2790   46.4376 O   0  0  0  0  0  0  0  0  0  0  0  0
   58.8233   27.7832   47.5663 N   0  0  0  0  0  0  0  0  0  0  0  0
   58.4174   26.5880   46.8826 C   0  0  0  0  0  0  0  0  0  0  0  0
   57.0519   26.3686   46.6849 C   0  0  0  0  0  0  0  0  0  0  0  0
   56.6187   25.2752   45.9239 C   0  0  0  0  0  0  0  0  0  0  0  0
   57.5446   24.3872   45.3720 C   0  0  0  0  0  0  0  0  0  0  0  0
   58.9085   24.5886   45.5743 C   0  0  0  0  0  0  0  0  0  0  0  0
   59.3529   25.6912   46.3158 C   0  0  0  0  0  0  0  0  0  0  0  0
   60.6868   25.8971   46.4331 F   0  0  0  0  0  0  0  0  0  0  0  0
   59.7202   34.3166   48.4609 C   0  0  0  0  0  0  0  0  0  0  0  0
   60.9881   33.5227   48.5927 C   0  0  0  0  0  0  0  0  0  0  0  0
   61.2331   32.7421   49.7347 C   0  0  0  0  0  0  0  0  0  0  0  0
   62.4216   32.0100   49.8472 C   0  0  0  0  0  0  0  0  0  0  0  0
   63.3818   32.0787   48.8396 C   0  0  0  0  0  0  0  0  0  0  0  0
   63.1627   32.8757   47.7117 C   0  0  0  0  0  0  0  0  0  0  0  0
   64.1430   32.9583   46.7320 O   0  0  0  0  0  0  0  0  0  0  0  0
   61.9609   33.5882   47.5813 C   0  0  0  0  0  0  0  0  0  0  0  0
  8  9  1  0
  9 10  2  0
  9 11  2  0
  9  1  1  0
  1  2  2  0
  2 12  1  0
 12 13  1  0
 13 14  2  0
 13 15  1  0
 15 16  1  0
 16 17  2  0
 17 18  1  0
 18 19  2  0
 19 20  1  0
 20 21  2  0
 21 22  1  0
  2  3  1  0
  3  4  1  0
  4  5  2  0
  5 23  1  0
 23 24  1  0
 24 25  2  0
 25 26  1  0
 26 27  2  0
 27 28  1  0
 28 29  1  0
 28 30  2  0
  4  6  1  0
  6  7  2  0
  7  1  1  0
 21 16  1  0
 30 24  1  0
M  CHG  3   3  -1   8  -1  15  -1
M  END
>  <UniqueID>  (24) 
75

>  <SMILES>  (24) 
[NH-]S(=O)(=O)c1cc/c(=N\Cc2cccc(O)c2)[n-]c1OC(=O)[N-]c1ccccc1F

>  <Energy>  (24) 
55.5400510494561

>  <Genealogy>  (24) 
[NH-]S(=O)(=O)c1ccc(=NCc2cccc(O)c2)[n-]c1OC(=O)[N-]c1ccccc1F (protonated)
[NH-]S(=O)(=O)c1cc/c(=N\Cc2cccc(O)c2)[n-]c1OC(=O)[N-]c1ccccc1F (cis-trans isomerization)
[NH-]S(=O)(=O)c1cc/c(=N\Cc2cccc(O)c2)[n-]c1OC(=O)[N-]c1ccccc1F (3D coordinates assigned)
[NH-]S(=O)(=O)c1cc/c(=N\Cc2cccc(O)c2)[n-]c1OC(=O)[N-]c1ccccc1F (optimized conformer: 55.5400510494561 kcal/mol)

>  <smiles>  (24) 
NS(=O)(=O)c1ccc(=NCc2cccc(O)c2)[nH]c1OC(=O)Nc1ccccc1F

>  <score_type>  (24) 
oracle

>  <origin>  (24) 
adg

>  <m_score__min__energy>  (24) 
-14.220000000000001

>  <m_primary>  (24) 
energy

>  <minimizedAffinity>  (24) 
-9.02199

>  <minimizedRMSD>  (24) 
0.86307

>  <CNNscore>  (24) 
0.9025694132

>  <CNNaffinity>  (24) 
7.0584473610

>  <CNN_VS>  (24) 
6.3707385063

>  <CNNaffinity_variance>  (24) 
0.0846953765

$$$$
61:0
     RDKit          3D

 25 27  0  0  0  0  0  0  0  0999 V2000
   59.6730   32.6391   46.7616 N   0  0  0  0  0  0  0  0  0  0  0  0
   59.0821   31.7527   45.9552 N   0  0  0  0  0  0  0  0  0  0  0  0
   58.0575   32.0884   45.1269 C   0  0  0  0  0  0  0  0  0  0  0  0
   57.5975   33.4085   45.1214 C   0  0  0  0  0  0  0  0  0  0  0  0
   58.2023   34.3423   45.9585 C   0  0  0  0  0  0  0  0  0  0  0  0
   59.2540   33.9431   46.7821 C   0  0  0  0  0  0  0  0  0  0  0  0
   59.8162   34.7934   47.5268 O   0  0  0  0  0  0  0  0  0  0  0  0
   59.1030   30.9691   49.1124 C   0  0  0  0  0  0  0  0  0  0  0  0
   60.4998   31.3946   48.7482 C   0  0  0  0  0  0  0  0  0  0  0  0
   61.5723   31.0195   49.5745 C   0  0  0  0  0  0  0  0  0  0  0  0
   62.8780   31.4008   49.2586 C   0  0  0  0  0  0  0  0  0  0  0  0
   63.1273   32.1700   48.1223 C   0  0  0  0  0  0  0  0  0  0  0  0
   62.0692   32.5644   47.2993 C   0  0  0  0  0  0  0  0  0  0  0  0
   60.7504   32.1873   47.6022 C   0  0  0  0  0  0  0  0  0  0  0  0
   57.4687   31.0616   44.2505 C   0  0  0  0  0  0  0  0  0  0  0  0
   57.3546   31.2689   43.0113 O   0  0  0  0  0  0  0  0  0  0  0  0
   57.0294   29.8217   44.8147 N   0  0  0  0  0  0  0  0  0  0  0  0
   57.6055   28.5265   44.4722 C   0  0  0  0  0  0  0  0  0  0  0  0
   58.4023   27.9879   45.6343 C   0  0  0  0  0  0  0  0  0  0  0  0
   59.6543   28.5547   45.9282 C   0  0  0  0  0  0  0  0  0  0  0  0
   60.4230   28.0619   46.9870 C   0  0  0  0  0  0  0  0  0  0  0  0
   59.9507   26.9982   47.7587 C   0  0  0  0  0  0  0  0  0  0  0  0
   58.7099   26.4235   47.4727 C   0  0  0  0  0  0  0  0  0  0  0  0
   57.9348   26.9100   46.4145 C   0  0  0  0  0  0  0  0  0  0  0  0
   56.7034   26.3193   46.1498 O   0  0  0  0  0  0  0  0  0  0  0  0
  8  9  1  0
  9 10  2  0
 10 11  1  0
 11 12  2  0
 12 13  1  0
 13 14  2  0
 14  1  1  0
  1  2  1  0
  2  3  2  0
  3 15  1  0
 15 16  2  0
 15 17  1  0
 17 18  1  0
 18 19  1  0
 19 20  2  0
 20 21  1  0
 21 22  2  0
 22 23  1  0
 23 24  2  0
 24 25  1  0
  3  4  1  0
  4  5  2  0
  5  6  1  0
  6  7  2  0
 14  9  1  0
  6  1  1  0
 24 19  1  0
M  CHG  2  17  -1  25  -1
M  END
>  <UniqueID>  (25) 
59

>  <SMILES>  (25) 
Cc1ccccc1-n1nc(C(=O)[N-]Cc2ccccc2[O-])ccc1=O

>  <Energy>  (25) 
49.159490660700264

>  <Genealogy>  (25) 
Cc1ccccc1-n1nc(C(=O)[N-]Cc2ccccc2[O-])ccc1=O (protonated)
Cc1ccccc1-n1nc(C(=O)[N-]Cc2ccccc2[O-])ccc1=O (3D coordinates assigned)
Cc1ccccc1-n1nc(C(=O)[N-]Cc2ccccc2[O-])ccc1=O (optimized conformer: 49.159490660700264 kcal/mol)

>  <smiles>  (25) 
Cc1ccccc1-n1nc(C(=O)NCc2ccccc2O)ccc1=O

>  <score_type>  (25) 
oracle

>  <origin>  (25) 
adg

>  <m_score__min__energy>  (25) 
-14.300000000000001

>  <m_primary>  (25) 
energy

>  <minimizedAffinity>  (25) 
-7.90743

>  <minimizedRMSD>  (25) 
1.36698

>  <CNNscore>  (25) 
0.9055497050

>  <CNNaffinity>  (25) 
6.7573757172

>  <CNN_VS>  (25) 
6.1191396713

>  <CNNaffinity_variance>  (25) 
0.0719602033

$$$$
56:0
     RDKit          3D

 37 40  0  0  0  0  0  0  0  0999 V2000
   58.9932   29.2192   46.7789 C   0  0  0  0  0  0  0  0  0  0  0  0
   60.0496   29.9211   46.1784 C   0  0  0  0  0  0  0  0  0  0  0  0
   61.0487   30.4996   46.9673 C   0  0  0  0  0  0  0  0  0  0  0  0
   61.0070   30.3748   48.3576 C   0  0  0  0  0  0  0  0  0  0  0  0
   59.9674   29.6572   48.9672 C   0  0  0  0  0  0  0  0  0  0  0  0
   58.9723   29.0706   48.1747 C   0  0  0  0  0  0  0  0  0  0  0  0
   59.8748   29.5112   50.7201 S   0  0  0  0  0  0  0  0  0  0  0  0
   58.4310   29.6199   51.1178 O   0  0  0  0  0  0  0  0  0  0  0  0
   60.4058   28.1811   51.1743 O   0  0  0  0  0  0  0  0  0  0  0  0
   60.8161   30.7846   51.4548 N   0  0  0  0  0  0  0  0  0  0  0  0
   62.2564   30.6022   51.6564 C   0  0  0  0  0  0  0  0  0  0  0  0
   62.5889   30.8149   53.1314 C   0  0  0  0  0  0  0  0  0  0  0  0
   62.2066   32.2349   53.5630 C   0  0  0  0  0  0  0  0  0  0  0  0
   60.8195   32.6262   53.1072 C   0  0  0  0  0  0  0  0  0  0  0  0
   60.1919   33.7308   53.7025 C   0  0  0  0  0  0  0  0  0  0  0  0
   58.9289   34.1430   53.2752 C   0  0  0  0  0  0  0  0  0  0  0  0
   58.2935   33.4731   52.2288 C   0  0  0  0  0  0  0  0  0  0  0  0
   58.9149   32.3859   51.6096 C   0  0  0  0  0  0  0  0  0  0  0  0
   60.1776   31.9397   52.0478 C   0  0  0  0  0  0  0  0  0  0  0  0
   57.9492   28.5994   45.9406 C   0  0  0  0  0  0  0  0  0  0  0  0
   57.9535   27.3502   45.7787 O   0  0  0  0  0  0  0  0  0  0  0  0
   56.9271   29.3718   45.3000 N   0  0  0  0  0  0  0  0  0  0  0  0
   57.0471   29.9967   43.9860 C   0  0  0  0  0  0  0  0  0  0  0  0
   57.9690   32.0397   43.1701 O   0  0  0  0  0  0  0  0  0  0  0  0
   57.4396   31.4312   44.1375 C   0  0  0  0  0  0  0  0  0  0  0  0
   57.1629   32.1218   45.3597 N   0  0  0  0  0  0  0  0  0  0  0  0
   57.6941   33.4445   45.6609 C   0  0  0  0  0  0  0  0  0  0  0  0
   58.4481   33.4148   46.9624 C   0  0  0  0  0  0  0  0  0  0  0  0
   58.1283   32.5615   47.8320 O   0  0  0  0  0  0  0  0  0  0  0  0
   59.4872   34.3612   47.2687 N   0  0  0  0  0  0  0  0  0  0  0  0
   60.8074   34.0488   47.7297 C   0  0  0  0  0  0  0  0  0  0  0  0
   61.8421   33.7373   46.8313 C   0  0  0  0  0  0  0  0  0  0  0  0
   63.1238   33.4442   47.3112 C   0  0  0  0  0  0  0  0  0  0  0  0
   63.3756   33.4385   48.6861 C   0  0  0  0  0  0  0  0  0  0  0  0
   64.6188   33.1571   49.1499 F   0  0  0  0  0  0  0  0  0  0  0  0
   62.3381   33.7119   49.5854 C   0  0  0  0  0  0  0  0  0  0  0  0
   61.0564   34.0063   49.1073 C   0  0  0  0  0  0  0  0  0  0  0  0
 24 25  2  0
 25 23  1  0
 23 22  1  0
 22 20  1  0
 20 21  2  0
 20  1  1  0
  1  2  2  0
  2  3  1  0
  3  4  2  0
  4  5  1  0
  5  7  1  0
  7  8  2  0
  7  9  2  0
  7 10  1  0
 10 11  1  0
 11 12  1  0
 12 13  1  0
 13 14  1  0
 14 15  2  0
 15 16  1  0
 16 17  2  0
 17 18  1  0
 18 19  2  0
  5  6  2  0
 25 26  1  0
 26 27  1  0
 27 28  1  0
 28 29  2  0
 28 30  1  0
 30 31  1  0
 31 32  2  0
 32 33  1  0
 33 34  2  0
 34 35  1  0
 34 36  1  0
 36 37  2  0
  6  1  1  0
 37 31  1  0
 19 10  1  0
 19 14  1  0
M  CHG  3  22  -1  26  -1  30  -1
M  END
>  <UniqueID>  (26) 
52

>  <SMILES>  (26) 
O=C(C[N-]C(=O)c1cccc(S(=O)(=O)N2CCCc3ccccc32)c1)[N-]CC(=O)[N-]c1ccc(F)cc1

>  <Energy>  (26) 
65.83305572036669

>  <Genealogy>  (26) 
O=C(C[N-]C(=O)c1cccc(S(=O)(=O)N2CCCc3ccccc32)c1)[N-]CC(=O)[N-]c1ccc(F)cc1 (protonated)
O=C(C[N-]C(=O)c1cccc(S(=O)(=O)N2CCCc3ccccc32)c1)[N-]CC(=O)[N-]c1ccc(F)cc1 (3D coordinates assigned)
O=C(C[N-]C(=O)c1cccc(S(=O)(=O)N2CCCc3ccccc32)c1)[N-]CC(=O)[N-]c1ccc(F)cc1 (nonaromatic ring conformer: 65.83305572036669 kcal/mol)

>  <smiles>  (26) 
O=C(CNC(=O)c1cccc(S(=O)(=O)N2CCCc3ccccc32)c1)NCC(=O)Nc1ccc(F)cc1

>  <score_type>  (26) 
oracle

>  <origin>  (26) 
adg

>  <m_score__min__energy>  (26) 
-15.5

>  <m_primary>  (26) 
energy

>  <minimizedAffinity>  (26) 
-8.24322

>  <minimizedRMSD>  (26) 
1.23984

>  <CNNscore>  (26) 
0.9463271499

>  <CNNaffinity>  (26) 
7.4695458412

>  <CNN_VS>  (26) 
7.0686340332

>  <CNNaffinity_variance>  (26) 
0.1671742201

$$$$
25:0
     RDKit          3D

 26 28  0  0  0  0  0  0  0  0999 V2000
   58.7285   30.6379   47.0419 N   0  0  0  0  0  0  0  0  0  0  0  0
   58.6703   31.9134   46.3933 C   0  0  0  0  0  0  0  0  0  0  0  0
   58.1795   32.0095   45.0821 C   0  0  0  0  0  0  0  0  0  0  0  0
   58.1457   33.2433   44.4300 C   0  0  0  0  0  0  0  0  0  0  0  0
   58.6090   34.3894   45.0791 C   0  0  0  0  0  0  0  0  0  0  0  0
   59.1089   34.3037   46.3812 C   0  0  0  0  0  0  0  0  0  0  0  0
   59.1413   33.0691   47.0523 C   0  0  0  0  0  0  0  0  0  0  0  0
   59.6784   33.0023   48.4620 C   0  0  0  0  0  0  0  0  0  0  0  0
   61.1769   32.8676   48.4511 C   0  0  0  0  0  0  0  0  0  0  0  0
   61.9294   33.3403   47.3613 C   0  0  0  0  0  0  0  0  0  0  0  0
   63.3233   33.2308   47.3661 C   0  0  0  0  0  0  0  0  0  0  0  0
   63.9754   32.6546   48.4589 C   0  0  0  0  0  0  0  0  0  0  0  0
   63.2372   32.1876   49.5489 C   0  0  0  0  0  0  0  0  0  0  0  0
   61.8429   32.2938   49.5480 C   0  0  0  0  0  0  0  0  0  0  0  0
   60.6460   29.5007   47.6797 O   0  0  0  0  0  0  0  0  0  0  0  0
   59.7446   29.6552   46.8133 C   0  0  0  0  0  0  0  0  0  0  0  0
   59.7239   28.7568   45.6042 C   0  0  0  0  0  0  0  0  0  0  0  0
   58.9089   27.5077   45.8654 C   0  0  0  0  0  0  0  0  0  0  0  0
   57.5162   27.5053   45.6644 C   0  0  0  0  0  0  0  0  0  0  0  0
   56.8593   28.6629   45.2554 O   0  0  0  0  0  0  0  0  0  0  0  0
   56.8023   26.3660   45.8653 N   0  0  0  0  0  0  0  0  0  0  0  0
   57.4064   25.2213   46.2697 C   0  0  0  0  0  0  0  0  0  0  0  0
   56.7250   24.1786   46.4438 O   0  0  0  0  0  0  0  0  0  0  0  0
   58.7446   25.2003   46.4892 N   0  0  0  0  0  0  0  0  0  0  0  0
   59.5063   26.3101   46.3036 C   0  0  0  0  0  0  0  0  0  0  0  0
   60.7438   26.2481   46.5295 O   0  0  0  0  0  0  0  0  0  0  0  0
 15 16  2  0
 16 17  1  0
 17 18  1  0
 18 19  2  0
 19 20  1  0
 19 21  1  0
 21 22  1  0
 22 23  2  0
 22 24  1  0
 24 25  1  0
 25 26  2  0
 16  1  1  0
  1  2  1  0
  2  3  2  0
  3  4  1  0
  4  5  2  0
  5  6  1  0
  6  7  2  0
  7  8  1  0
  8  9  1  0
  9 10  2  0
 10 11  1  0
 11 12  2  0
 12 13  1  0
 13 14  2  0
 25 18  1  0
  7  2  1  0
 14  9  1  0
M  CHG  3   1  -1  21  -1  24  -1
M  END
>  <UniqueID>  (27) 
23

>  <SMILES>  (27) 
O=C(Cc1c(O)[n-]c(=O)[n-]c1=O)[N-]c1ccccc1Cc1ccccc1

>  <Energy>  (27) 
46.82372318860858

>  <Genealogy>  (27) 
O=C(Cc1c(O)[n-]c(=O)[n-]c1=O)[N-]c1ccccc1Cc1ccccc1 (protonated)
O=C(Cc1c(O)[n-]c(=O)[n-]c1=O)[N-]c1ccccc1Cc1ccccc1 (3D coordinates assigned)
O=C(Cc1c(O)[n-]c(=O)[n-]c1=O)[N-]c1ccccc1Cc1ccccc1 (optimized conformer: 46.82372318860858 kcal/mol)

>  <smiles>  (27) 
O=C(Cc1c(O)[nH]c(=O)[nH]c1=O)Nc1ccccc1Cc1ccccc1

>  <score_type>  (27) 
oracle

>  <origin>  (27) 
adg

>  <m_score__min__energy>  (27) 
-14.470000000000001

>  <m_primary>  (27) 
energy

>  <minimizedAffinity>  (27) 
-8.33017

>  <minimizedRMSD>  (27) 
1.92189

>  <CNNscore>  (27) 
0.9184724689

>  <CNNaffinity>  (27) 
6.8985047340

>  <CNN_VS>  (27) 
6.3360867500

>  <CNNaffinity_variance>  (27) 
0.1720127314

$$$$
2:0
     RDKit          3D

 26 28  0  0  0  0  0  0  0  0999 V2000
   58.0155   30.5278   45.3434 C   0  0  0  0  0  0  0  0  0  0  0  0
   59.1067   29.8333   45.9191 C   0  0  0  0  0  0  0  0  0  0  0  0
   59.9783   30.4764   46.6914 O   0  0  0  0  0  0  0  0  0  0  0  0
   59.8886   31.7688   46.9720 C   0  0  0  0  0  0  0  0  0  0  0  0
   60.8501   32.3653   47.7958 C   0  0  0  0  0  0  0  0  0  0  0  0
   60.7667   33.7278   48.0996 C   0  0  0  0  0  0  0  0  0  0  0  0
   61.7241   34.3160   48.9167 O   0  0  0  0  0  0  0  0  0  0  0  0
   59.7219   34.4984   47.5822 C   0  0  0  0  0  0  0  0  0  0  0  0
   58.7566   33.9110   46.7582 C   0  0  0  0  0  0  0  0  0  0  0  0
   58.8318   32.5404   46.4465 C   0  0  0  0  0  0  0  0  0  0  0  0
   57.8896   31.9065   45.6205 C   0  0  0  0  0  0  0  0  0  0  0  0
   56.9467   32.5757   45.1146 O   0  0  0  0  0  0  0  0  0  0  0  0
   55.7011   29.5908   44.9148 N   0  0  0  0  0  0  0  0  0  0  0  0
   57.0351   29.8278   44.4672 C   0  0  0  0  0  0  0  0  0  0  0  0
   57.3713   29.4348   43.3181 O   0  0  0  0  0  0  0  0  0  0  0  0
   59.2700   28.4275   45.6901 N   0  0  0  0  0  0  0  0  0  0  0  0
   59.2552   27.4146   46.7019 C   0  0  0  0  0  0  0  0  0  0  0  0
   58.9421   27.6916   47.8920 O   0  0  0  0  0  0  0  0  0  0  0  0
   59.6616   26.0206   46.3481 C   0  0  0  0  0  0  0  0  0  0  0  0
   58.4525   25.2141   45.9637 C   0  0  0  0  0  0  0  0  0  0  0  0
   58.5989   23.9002   45.4852 C   0  0  0  0  0  0  0  0  0  0  0  0
   57.4724   23.1375   45.1634 C   0  0  0  0  0  0  0  0  0  0  0  0
   56.1929   23.6759   45.3238 C   0  0  0  0  0  0  0  0  0  0  0  0
   56.0371   24.9772   45.8123 C   0  0  0  0  0  0  0  0  0  0  0  0
   54.7644   25.5083   45.9789 O   0  0  0  0  0  0  0  0  0  0  0  0
   57.1632   25.7428   46.1363 C   0  0  0  0  0  0  0  0  0  0  0  0
 13 14  1  0
 14 15  2  0
 14  1  1  0
  1  2  2  0
  2 16  1  0
 16 17  1  0
 17 18  2  0
 17 19  1  0
 19 20  1  0
 20 21  2  0
 21 22  1  0
 22 23  2  0
 23 24  1  0
 24 25  1  0
 24 26  2  0
  2  3  1  0
  3  4  1  0
  4  5  2  0
  5  6  1  0
  6  7  1  0
  6  8  2  0
  8  9  1  0
  9 10  2  0
 10 11  1  0
 11 12  2  0
 11  1  1  0
 26 20  1  0
 10  4  1  0
M  CHG  4   7  -1  13  -1  16  -1  25  -1
M  END
>  <UniqueID>  (28) 
3

>  <SMILES>  (28) 
[NH-]C(=O)c1c([N-]C(=O)Cc2cccc([O-])c2)oc2cc([O-])ccc2c1=O

>  <Energy>  (28) 
46.49859843155771

>  <Genealogy>  (28) 
[NH-]C(=O)c1c([N-]C(=O)Cc2cccc([O-])c2)oc2cc([O-])ccc2c1=O (protonated)
[NH-]C(=O)c1c([N-]C(=O)Cc2cccc([O-])c2)oc2cc([O-])ccc2c1=O (3D coordinates assigned)
[NH-]C(=O)c1c([N-]C(=O)Cc2cccc([O-])c2)oc2cc([O-])ccc2c1=O (optimized conformer: 46.49859843155771 kcal/mol)

>  <smiles>  (28) 
NC(=O)c1c(NC(=O)Cc2cccc(O)c2)oc2cc(O)ccc2c1=O

>  <score_type>  (28) 
oracle

>  <origin>  (28) 
adg

>  <m_score__min__energy>  (28) 
-16.530000000000001

>  <m_primary>  (28) 
energy

>  <minimizedAffinity>  (28) 
-9.24757

>  <minimizedRMSD>  (28) 
0.62167

>  <CNNscore>  (28) 
0.9094285369

>  <CNNaffinity>  (28) 
7.1325607300

>  <CNN_VS>  (28) 
6.4865541458

>  <CNNaffinity_variance>  (28) 
0.4708913863

$$$$
53:0
     RDKit          3D

 29 31  0  0  0  0  0  0  0  0999 V2000
   58.2911   32.0325   45.2706 N   0  0  0  0  0  0  0  0  0  0  0  0
   58.3978   32.2187   46.6980 C   0  0  0  0  0  0  0  0  0  0  0  0
   57.5203   32.8843   47.3103 O   0  0  0  0  0  0  0  0  0  0  0  0
   59.5046   31.6199   47.4769 C   0  0  0  0  0  0  0  0  0  0  0  0
   59.2346   30.4766   48.2441 C   0  0  0  0  0  0  0  0  0  0  0  0
   60.2621   29.8600   48.9606 C   0  0  0  0  0  0  0  0  0  0  0  0
   60.0259   28.8239   49.6361 O   0  0  0  0  0  0  0  0  0  0  0  0
   61.5184   30.3733   48.9307 N   0  0  0  0  0  0  0  0  0  0  0  0
   61.8208   31.4922   48.2216 C   0  0  0  0  0  0  0  0  0  0  0  0
   63.1290   31.9888   48.2399 C   0  0  0  0  0  0  0  0  0  0  0  0
   63.4473   33.1541   47.5387 C   0  0  0  0  0  0  0  0  0  0  0  0
   62.4593   33.8331   46.8245 C   0  0  0  0  0  0  0  0  0  0  0  0
   61.1496   33.3467   46.7953 C   0  0  0  0  0  0  0  0  0  0  0  0
   60.8135   32.1605   47.4796 C   0  0  0  0  0  0  0  0  0  0  0  0
   58.9253   34.3854   44.8676 C   0  0  0  0  0  0  0  0  0  0  0  0
   58.1311   33.1830   44.3651 C   0  0  0  0  0  0  0  0  0  0  0  0
   58.4275   30.6878   44.6990 C   0  0  0  0  0  0  0  0  0  0  0  0
   57.1419   29.9254   44.8622 C   0  0  0  0  0  0  0  0  0  0  0  0
   56.0493   30.5333   44.7217 O   0  0  0  0  0  0  0  0  0  0  0  0
   57.1226   28.5614   45.3028 N   0  0  0  0  0  0  0  0  0  0  0  0
   58.2448   27.8213   45.8065 C   0  0  0  0  0  0  0  0  0  0  0  0
   59.5445   28.3304   45.6362 C   0  0  0  0  0  0  0  0  0  0  0  0
   60.6543   27.6008   46.0607 C   0  0  0  0  0  0  0  0  0  0  0  0
   60.4838   26.3464   46.6388 C   0  0  0  0  0  0  0  0  0  0  0  0
   59.2039   25.8126   46.7916 C   0  0  0  0  0  0  0  0  0  0  0  0
   58.0655   26.5351   46.3769 C   0  0  0  0  0  0  0  0  0  0  0  0
   56.7213   25.9247   46.5691 C   0  0  0  0  0  0  0  0  0  0  0  0
   55.5577   26.4860   45.9632 N   0  0  0  0  0  0  0  0  0  0  0  0
   56.5905   24.9005   47.2933 O   0  0  0  0  0  0  0  0  0  0  0  0
 15 16  1  0
 16  1  1  0
  1 17  1  0
 17 18  1  0
 18 19  2  0
 18 20  1  0
 20 21  1  0
 21 22  2  0
 22 23  1  0
 23 24  2  0
 24 25  1  0
 25 26  2  0
 26 27  1  0
 27 28  1  0
 27 29  2  0
  1  2  1  0
  2  3  2  0
  2  4  1  0
  4  5  2  0
  5  6  1  0
  6  7  2  0
  6  8  1  0
  8  9  1  0
  9 10  2  0
 10 11  1  0
 11 12  2  0
 12 13  1  0
 13 14  2  0
 26 21  1  0
 14  4  1  0
 14  9  1  0
M  CHG  3   8  -1  20  -1  28  -1
M  END
>  <UniqueID>  (29) 
46

>  <SMILES>  (29) 
CCN(CC(=O)[N-]c1ccccc1C([NH-])=O)C(=O)c1cc(=O)[n-]c2ccccc12

>  <Energy>  (29) 
62.268960733607116

>  <Genealogy>  (29) 
CCN(CC(=O)[N-]c1ccccc1C([NH-])=O)C(=O)c1cc(=O)[n-]c2ccccc12 (protonated)
CCN(CC(=O)[N-]c1ccccc1C([NH-])=O)C(=O)c1cc(=O)[n-]c2ccccc12 (3D coordinates assigned)
CCN(CC(=O)[N-]c1ccccc1C([NH-])=O)C(=O)c1cc(=O)[n-]c2ccccc12 (optimized conformer: 62.268960733607116 kcal/mol)

>  <smiles>  (29) 
CCN(CC(=O)Nc1ccccc1C(N)=O)C(=O)c1cc(=O)[nH]c2ccccc12

>  <score_type>  (29) 
oracle

>  <origin>  (29) 
adg

>  <m_score__min__energy>  (29) 
-14.84

>  <m_primary>  (29) 
energy

>  <minimizedAffinity>  (29) 
-8.95959

>  <minimizedRMSD>  (29) 
0.52085

>  <CNNscore>  (29) 
0.9400528669

>  <CNNaffinity>  (29) 
7.1584734917

>  <CNN_VS>  (29) 
6.7293434143

>  <CNNaffinity_variance>  (29) 
0.0541343503

$$$$
60:0
     RDKit          3D

 31 33  0  0  0  0  0  0  0  0999 V2000
   58.7732   30.6755   50.6854 C   0  0  0  0  0  0  0  0  0  0  0  0
   58.8566   31.8530   49.7650 C   0  0  0  0  0  0  0  0  0  0  0  0
   58.7189   33.0173   50.2294 O   0  0  0  0  0  0  0  0  0  0  0  0
   59.0216   31.6403   48.3582 N   0  0  0  0  0  0  0  0  0  0  0  0
   58.9908   32.6439   47.3305 C   0  0  0  0  0  0  0  0  0  0  0  0
   57.8126   32.9017   46.6004 C   0  0  0  0  0  0  0  0  0  0  0  0
   57.7956   33.8827   45.6068 C   0  0  0  0  0  0  0  0  0  0  0  0
   58.9482   34.6212   45.3320 C   0  0  0  0  0  0  0  0  0  0  0  0
   60.1168   34.3928   46.0630 C   0  0  0  0  0  0  0  0  0  0  0  0
   60.1471   33.4193   47.0770 C   0  0  0  0  0  0  0  0  0  0  0  0
   61.3969   33.2226   47.8531 C   0  0  0  0  0  0  0  0  0  0  0  0
   61.6791   34.0439   48.9585 C   0  0  0  0  0  0  0  0  0  0  0  0
   62.8589   33.8628   49.6900 C   0  0  0  0  0  0  0  0  0  0  0  0
   63.7589   32.8557   49.3309 C   0  0  0  0  0  0  0  0  0  0  0  0
   63.4812   32.0290   48.2403 C   0  0  0  0  0  0  0  0  0  0  0  0
   62.3032   32.2046   47.5061 C   0  0  0  0  0  0  0  0  0  0  0  0
   60.0713   30.0179   50.8055 N   0  0  0  0  0  0  0  0  0  0  0  0
   61.0875   27.9314   50.8329 O   0  0  0  0  0  0  0  0  0  0  0  0
   60.4404   28.7856   50.1685 C   0  0  0  0  0  0  0  0  0  0  0  0
   60.1225   28.5199   48.7214 C   0  0  0  0  0  0  0  0  0  0  0  0
   60.3650   27.1154   48.3959 N   0  0  0  0  0  0  0  0  0  0  0  0
   59.3982   26.6545   47.0265 S   0  0  0  0  0  0  0  0  0  0  0  0
   60.1908   25.7272   46.1498 O   0  0  0  0  0  0  0  0  0  0  0  0
   58.1707   25.9280   47.4982 O   0  0  0  0  0  0  0  0  0  0  0  0
   58.9355   28.0777   46.0937 C   0  0  0  0  0  0  0  0  0  0  0  0
   59.9141   28.9593   45.6078 C   0  0  0  0  0  0  0  0  0  0  0  0
   59.5426   30.0576   44.8264 C   0  0  0  0  0  0  0  0  0  0  0  0
   58.1940   30.2843   44.5296 C   0  0  0  0  0  0  0  0  0  0  0  0
   57.2162   29.4065   45.0073 C   0  0  0  0  0  0  0  0  0  0  0  0
   55.8768   29.6259   44.7058 O   0  0  0  0  0  0  0  0  0  0  0  0
   57.5866   28.3022   45.7859 C   0  0  0  0  0  0  0  0  0  0  0  0
 18 19  2  0
 19 20  1  0
 20 21  1  0
 21 22  1  0
 22 23  2  0
 22 24  2  0
 22 25  1  0
 25 26  2  0
 26 27  1  0
 27 28  2  0
 28 29  1  0
 29 30  1  0
 29 31  2  0
 19 17  1  0
 17  1  1  0
  1  2  1  0
  2  3  2  0
  2  4  1  0
  4  5  1  0
  5  6  2  0
  6  7  1  0
  7  8  2  0
  8  9  1  0
  9 10  2  0
 10 11  1  0
 11 12  2  0
 12 13  1  0
 13 14  2  0
 14 15  1  0
 15 16  2  0
 31 25  1  0
 10  5  1  0
 16 11  1  0
M  CHG  4   4  -1  17  -1  21  -1  30  -1
M  END
>  <UniqueID>  (30) 
59

>  <SMILES>  (30) 
O=C(C[N-]S(=O)(=O)c1cccc([O-])c1)[N-]CC(=O)[N-]c1ccccc1-c1ccccc1

>  <Energy>  (30) 
55.532717959686636

>  <Genealogy>  (30) 
O=C(C[N-]S(=O)(=O)c1cccc([O-])c1)[N-]CC(=O)[N-]c1ccccc1-c1ccccc1 (protonated)
O=C(C[N-]S(=O)(=O)c1cccc([O-])c1)[N-]CC(=O)[N-]c1ccccc1-c1ccccc1 (3D coordinates assigned)
O=C(C[N-]S(=O)(=O)c1cccc([O-])c1)[N-]CC(=O)[N-]c1ccccc1-c1ccccc1 (optimized conformer: 55.532717959686636 kcal/mol)

>  <smiles>  (30) 
O=C(CNS(=O)(=O)c1cccc(O)c1)NCC(=O)Nc1ccccc1-c1ccccc1

>  <score_type>  (30) 
oracle

>  <origin>  (30) 
adg

>  <m_score__min__energy>  (30) 
-16.079999999999998

>  <m_primary>  (30) 
energy

>  <minimizedAffinity>  (30) 
-7.29872

>  <minimizedRMSD>  (30) 
0.85817

>  <CNNscore>  (30) 
0.9067043662

>  <CNNaffinity>  (30) 
6.8642692566

>  <CNN_VS>  (30) 
6.2238631248

>  <CNNaffinity_variance>  (30) 
0.0418646522

$$$$
26:0
     RDKit          3D

 27 29  0  0  0  0  0  0  0  0999 V2000
   58.3236   31.4018   45.1408 C   0  0  0  0  0  0  0  0  0  0  0  0
   58.0096   32.6122   44.4948 C   0  0  0  0  0  0  0  0  0  0  0  0
   58.1822   33.8287   45.1619 C   0  0  0  0  0  0  0  0  0  0  0  0
   58.6765   33.8508   46.4687 C   0  0  0  0  0  0  0  0  0  0  0  0
   59.0090   32.6520   47.1136 C   0  0  0  0  0  0  0  0  0  0  0  0
   58.8414   31.4331   46.4410 C   0  0  0  0  0  0  0  0  0  0  0  0
   59.6509   32.6656   48.7533 S   0  0  0  0  0  0  0  0  0  0  0  0
   59.9383   34.0889   49.1391 O   0  0  0  0  0  0  0  0  0  0  0  0
   58.6313   32.0941   49.7001 O   0  0  0  0  0  0  0  0  0  0  0  0
   61.1218   31.7158   48.8045 N   0  0  0  0  0  0  0  0  0  0  0  0
   61.9274   32.0119   50.0096 C   0  0  0  0  0  0  0  0  0  0  0  0
   63.0983   32.9691   49.7222 C   0  0  0  0  0  0  0  0  0  0  0  0
   62.7438   33.8849   48.7106 O   0  0  0  0  0  0  0  0  0  0  0  0
   62.6208   33.2168   47.4654 C   0  0  0  0  0  0  0  0  0  0  0  0
   61.9009   31.8501   47.5616 C   0  0  0  0  0  0  0  0  0  0  0  0
   58.1889   30.1315   44.4856 N   0  0  0  0  0  0  0  0  0  0  0  0
   57.5837   28.9499   45.0259 C   0  0  0  0  0  0  0  0  0  0  0  0
   56.3425   28.9088   45.2480 O   0  0  0  0  0  0  0  0  0  0  0  0
   58.2241   26.5765   44.8852 C   0  0  0  0  0  0  0  0  0  0  0  0
   58.4449   27.8057   45.3683 C   0  0  0  0  0  0  0  0  0  0  0  0
   55.2923   26.4937   46.0361 O   0  0  0  0  0  0  0  0  0  0  0  0
   56.2358   25.4787   46.1519 C   0  0  0  0  0  0  0  0  0  0  0  0
   55.9753   24.3056   46.7674 N   0  0  0  0  0  0  0  0  0  0  0  0
   57.1028   23.5749   46.6510 C   0  0  0  0  0  0  0  0  0  0  0  0
   58.0599   24.2871   45.9651 C   0  0  0  0  0  0  0  0  0  0  0  0
   59.3404   23.8406   45.6586 O   0  0  0  0  0  0  0  0  0  0  0  0
   57.5275   25.5155   45.6449 C   0  0  0  0  0  0  0  0  0  0  0  0
 21 22  1  0
 22 23  1  0
 23 24  1  0
 24 25  2  0
 25 26  1  0
 25 27  1  0
 27 19  1  0
 19 20  2  0
 20 17  1  0
 17 18  2  0
 17 16  1  0
 16  1  1  0
  1  2  2  0
  2  3  1  0
  3  4  2  0
  4  5  1  0
  5  7  1  0
  7  8  2  0
  7  9  2  0
  7 10  1  0
 10 11  1  0
 11 12  1  0
 12 13  1  0
 13 14  1  0
 14 15  1  0
  5  6  2  0
 27 22  2  0
  6  1  1  0
 15 10  1  0
M  CHG  3  16  -1  23  -1  26  -1
M  END
>  <UniqueID>  (31) 
25

>  <SMILES>  (31) 
O=C(/C=C/c1c([O-])c[n-]c1O)[N-]c1cccc(S(=O)(=O)N2CCOCC2)c1

>  <Energy>  (31) 
85.88671848891093

>  <Genealogy>  (31) 
O=C(C=Cc1c([O-])c[n-]c1O)[N-]c1cccc(S(=O)(=O)N2CCOCC2)c1 (protonated)
O=C(/C=C/c1c([O-])c[n-]c1O)[N-]c1cccc(S(=O)(=O)N2CCOCC2)c1 (cis-trans isomerization)
O=C(/C=C/c1c([O-])c[n-]c1O)[N-]c1cccc(S(=O)(=O)N2CCOCC2)c1 (3D coordinates assigned)
O=C(/C=C/c1c([O-])c[n-]c1O)[N-]c1cccc(S(=O)(=O)N2CCOCC2)c1 (nonaromatic ring conformer: 85.88671848891093 kcal/mol)

>  <smiles>  (31) 
O=C(C=Cc1c(O)c[nH]c1O)Nc1cccc(S(=O)(=O)N2CCOCC2)c1

>  <score_type>  (31) 
oracle

>  <origin>  (31) 
adg

>  <m_score__min__energy>  (31) 
-14.720000000000001

>  <m_primary>  (31) 
energy

>  <minimizedAffinity>  (31) 
-8.51467

>  <minimizedRMSD>  (31) 
0.74494

>  <CNNscore>  (31) 
0.9515982866

>  <CNNaffinity>  (31) 
7.3232359886

>  <CNN_VS>  (31) 
6.9687786102

>  <CNNaffinity_variance>  (31) 
0.3641108572

$$$$
78:0
     RDKit          3D

 29 31  0  0  0  0  0  0  0  0999 V2000
   58.6673   31.0843   47.7644 C   0  0  0  0  0  0  0  0  0  0  0  0
   58.8955   32.4378   47.1281 C   0  0  0  0  0  0  0  0  0  0  0  0
   58.2504   32.7536   45.9072 C   0  0  0  0  0  0  0  0  0  0  0  0
   58.5027   33.9898   45.2887 C   0  0  0  0  0  0  0  0  0  0  0  0
   59.3639   34.9118   45.8756 C   0  0  0  0  0  0  0  0  0  0  0  0
   60.0054   34.6094   47.0716 C   0  0  0  0  0  0  0  0  0  0  0  0
   59.7955   33.3733   47.7031 C   0  0  0  0  0  0  0  0  0  0  0  0
   60.6922   33.0259   49.1953 S   0  0  0  0  0  0  0  0  0  0  0  0
   59.7114   32.6046   50.2536 O   0  0  0  0  0  0  0  0  0  0  0  0
   61.3956   34.2665   49.6739 O   0  0  0  0  0  0  0  0  0  0  0  0
   61.8587   31.7466   48.9281 N   0  0  0  0  0  0  0  0  0  0  0  0
   62.4081   31.7829   47.5608 C   0  0  0  0  0  0  0  0  0  0  0  0
   63.4341   32.9241   47.3655 C   0  0  0  0  0  0  0  0  0  0  0  0
   63.9442   33.4446   48.5811 O   0  0  0  0  0  0  0  0  0  0  0  0
   64.2262   32.3955   49.4794 C   0  0  0  0  0  0  0  0  0  0  0  0
   62.9184   31.7404   49.9615 C   0  0  0  0  0  0  0  0  0  0  0  0
   57.4020   31.7797   45.2759 N   0  0  0  0  0  0  0  0  0  0  0  0
   57.5501   31.2484   43.9535 C   0  0  0  0  0  0  0  0  0  0  0  0
   57.9826   31.9713   43.0167 O   0  0  0  0  0  0  0  0  0  0  0  0
   57.1347   29.8586   43.6979 C   0  0  0  0  0  0  0  0  0  0  0  0
   56.7528   29.0305   44.6801 C   0  0  0  0  0  0  0  0  0  0  0  0
   57.6992   28.1175   45.3635 C   0  0  0  0  0  0  0  0  0  0  0  0
   59.0784   28.4056   45.3689 C   0  0  0  0  0  0  0  0  0  0  0  0
   59.9748   27.5838   46.0558 C   0  0  0  0  0  0  0  0  0  0  0  0
   59.5089   26.4694   46.7529 C   0  0  0  0  0  0  0  0  0  0  0  0
   58.1453   26.1678   46.7614 C   0  0  0  0  0  0  0  0  0  0  0  0
   57.6956   25.0518   47.4570 O   0  0  0  0  0  0  0  0  0  0  0  0
   57.2336   26.9782   46.0681 C   0  0  0  0  0  0  0  0  0  0  0  0
   55.8845   26.6157   46.0835 O   0  0  0  0  0  0  0  0  0  0  0  0
  1  2  1  0
  2  3  2  0
  3 17  1  0
 17 18  1  0
 18 19  2  0
 18 20  1  0
 20 21  2  0
 21 22  1  0
 22 23  2  0
 23 24  1  0
 24 25  2  0
 25 26  1  0
 26 27  1  0
 26 28  2  0
 28 29  1  0
  3  4  1  0
  4  5  2  0
  5  6  1  0
  6  7  2  0
  7  8  1  0
  8  9  2  0
  8 10  2  0
  8 11  1  0
 11 12  1  0
 12 13  1  0
 13 14  1  0
 14 15  1  0
 15 16  1  0
  7  2  1  0
 16 11  1  0
 28 22  1  0
M  CHG  2  17  -1  27  -1
M  END
>  <UniqueID>  (32) 
78

>  <SMILES>  (32) 
Cc1c([N-]C(=O)C=Cc2cccc([O-])c2O)cccc1S(=O)(=O)N1CCOCC1

>  <Energy>  (32) 
71.75927873809727

>  <Genealogy>  (32) 
Cc1c([N-]C(=O)C=Cc2cccc([O-])c2O)cccc1S(=O)(=O)N1CCOCC1 (protonated)
Cc1c([N-]C(=O)C=Cc2cccc([O-])c2O)cccc1S(=O)(=O)N1CCOCC1 (3D coordinates assigned)
Cc1c([N-]C(=O)C=Cc2cccc([O-])c2O)cccc1S(=O)(=O)N1CCOCC1 (nonaromatic ring conformer: 71.75927873809727 kcal/mol)

>  <smiles>  (32) 
Cc1c(NC(=O)C=Cc2cccc(O)c2O)cccc1S(=O)(=O)N1CCOCC1

>  <score_type>  (32) 
oracle

>  <origin>  (32) 
adg

>  <m_score__min__energy>  (32) 
-15.119999999999999

>  <m_primary>  (32) 
energy

>  <minimizedAffinity>  (32) 
-9.20100

>  <minimizedRMSD>  (32) 
0.61197

>  <CNNscore>  (32) 
0.9287020564

>  <CNNaffinity>  (32) 
6.8576698303

>  <CNN_VS>  (32) 
6.3687319756

>  <CNNaffinity_variance>  (32) 
0.0594307072

$$$$
82:0
     RDKit          3D

 25 27  0  0  0  0  0  0  0  0999 V2000
   57.7756   31.0591   44.9447 C   0  0  0  0  0  0  0  0  0  0  0  0
   57.8695   32.3137   44.3248 C   0  0  0  0  0  0  0  0  0  0  0  0
   58.4593   33.3885   44.9914 C   0  0  0  0  0  0  0  0  0  0  0  0
   58.9673   33.2348   46.2851 C   0  0  0  0  0  0  0  0  0  0  0  0
   59.7653   34.7844   47.0899 Br  0  0  0  0  0  0  0  0  0  0  0  0
   58.8838   31.9758   46.9266 C   0  0  0  0  0  0  0  0  0  0  0  0
   58.2824   30.9037   46.2464 C   0  0  0  0  0  0  0  0  0  0  0  0
   59.4990   31.6892   48.5696 S   0  0  0  0  0  0  0  0  0  0  0  0
   58.9576   32.7191   49.5193 O   0  0  0  0  0  0  0  0  0  0  0  0
   59.0023   30.3483   49.0387 O   0  0  0  0  0  0  0  0  0  0  0  0
   61.2445   31.6950   48.6560 N   0  0  0  0  0  0  0  0  0  0  0  0
   61.7711   32.9134   49.2625 C   0  0  0  0  0  0  0  0  0  0  0  0
   63.2009   33.0436   48.7668 C   0  0  0  0  0  0  0  0  0  0  0  0
   63.2365   32.2663   47.4578 C   0  0  0  0  0  0  0  0  0  0  0  0
   61.8594   31.6264   47.3301 C   0  0  0  0  0  0  0  0  0  0  0  0
   56.7804   30.0420   43.0381 O   0  0  0  0  0  0  0  0  0  0  0  0
   57.1454   29.9168   44.2394 C   0  0  0  0  0  0  0  0  0  0  0  0
   56.8440   28.7077   44.9532 N   0  0  0  0  0  0  0  0  0  0  0  0
   57.6618   27.8161   45.4447 C   0  0  0  0  0  0  0  0  0  0  0  0
   58.9968   28.0234   45.2719 N   0  0  0  0  0  0  0  0  0  0  0  0
   59.9392   27.1688   45.7488 C   0  0  0  0  0  0  0  0  0  0  0  0
   59.5556   26.0240   46.4428 C   0  0  0  0  0  0  0  0  0  0  0  0
   58.1987   25.7575   46.6177 C   0  0  0  0  0  0  0  0  0  0  0  0
   57.2372   26.6338   46.1070 C   0  0  0  0  0  0  0  0  0  0  0  0
   55.8983   26.2829   46.2245 O   0  0  0  0  0  0  0  0  0  0  0  0
 16 17  2  0
 17 18  1  0
 18 19  2  0
 19 20  1  0
 20 21  1  0
 21 22  2  0
 22 23  1  0
 23 24  2  0
 24 25  1  0
 17  1  1  0
  1  2  2  0
  2  3  1  0
  3  4  2  0
  4  5  1  0
  4  6  1  0
  6  8  1  0
  8  9  2  0
  8 10  2  0
  8 11  1  0
 11 12  1  0
 12 13  1  0
 13 14  1  0
 14 15  1  0
  6  7  2  0
 24 19  1  0
  7  1  1  0
 15 11  1  0
M  CHG  2  20  -1  25  -1
M  END
>  <UniqueID>  (33) 
78

>  <SMILES>  (33) 
O=C(N=c1[n-]cccc1[O-])c1ccc(Br)c(S(=O)(=O)N2CCCC2)c1

>  <Energy>  (33) 
58.43132810464843

>  <Genealogy>  (33) 
O=C(N=c1[n-]cccc1[O-])c1ccc(Br)c(S(=O)(=O)N2CCCC2)c1 (protonated)
O=C(N=c1[n-]cccc1[O-])c1ccc(Br)c(S(=O)(=O)N2CCCC2)c1 (3D coordinates assigned)
O=C(N=c1[n-]cccc1[O-])c1ccc(Br)c(S(=O)(=O)N2CCCC2)c1 (nonaromatic ring conformer: 58.43132810464843 kcal/mol)

>  <smiles>  (33) 
O=C(N=c1[nH]cccc1O)c1ccc(Br)c(S(=O)(=O)N2CCCC2)c1

>  <score_type>  (33) 
oracle

>  <origin>  (33) 
adg

>  <m_score__min__energy>  (33) 
-14.529999999999999

>  <m_primary>  (33) 
energy

>  <minimizedAffinity>  (33) 
-7.97787

>  <minimizedRMSD>  (33) 
0.65706

>  <CNNscore>  (33) 
0.9244850278

>  <CNNaffinity>  (33) 
7.5398292542

>  <CNN_VS>  (33) 
6.9704594612

>  <CNNaffinity_variance>  (33) 
0.3722969592

$$$$
